MODEL 1
REMARK VINA RESULT:     104.7      0.000      0.000
REMARK  4 active torsions:
REMARK  status: ('A' for Active; 'I' for Inactive)
REMARK    1  A    between atoms: C2_2  and  C4_4 
REMARK    2  A    between atoms: C4_4  and  C6_6 
REMARK    3  A    between atoms: C6_6  and  C7_7 
REMARK    4  A    between atoms: C7_7  and  C9_9 
ROOT
ATOM      1  C7  UNK d          28.708  25.860   2.876  0.00  0.00     0.104 C 
ATOM      2  O8  UNK d          30.013  26.582   3.034  0.00  0.00    -0.195 OA
ENDROOT
BRANCH   1   3
ATOM      3  C6  UNK d          28.694  24.375   2.664  0.00  0.00     0.098 C 
BRANCH   3   4
ATOM      4  C4  UNK d          27.596  23.742   1.863  0.00  0.00     0.245 C 
ATOM      5  O5  UNK d          26.247  23.520   2.481  0.00  0.00    -0.211 OA
BRANCH   4   6
ATOM      6  C2  UNK d          27.846  23.329   0.442  0.00  0.00     0.218 C 
ATOM      7  O1  UNK d          26.738  23.403  -0.566  0.00  0.00    -0.645 OA
ATOM      8  O3  UNK d          29.204  22.844   0.030  0.00  0.00    -0.645 OA
ENDBRANCH   4   6
ENDBRANCH   3   4
ENDBRANCH   1   3
BRANCH   1   9
ATOM      9  C9  UNK d          27.417  26.622   2.929  0.00  0.00    -0.023 A 
ATOM     10  C10 UNK d          26.112  25.884   2.978  0.00  0.00     0.024 A 
ATOM     11  C11 UNK d          24.821  26.646   3.031  0.00  0.00     0.004 A 
ATOM     12  C12 UNK d          24.836  28.146   3.035  0.00  0.00     0.001 A 
ATOM     13  C13 UNK d          26.141  28.884   2.986  0.00  0.00     0.004 A 
ATOM     14  C14 UNK d          27.432  28.122   2.933  0.00  0.00     0.024 A 
ENDBRANCH   1   9
TORSDOF 4
ENDMDL
