MODEL 1
REMARK VINA RESULT:     193.8      0.000      0.000
REMARK  7 active torsions:
REMARK  status: ('A' for Active; 'I' for Inactive)
REMARK    1  A    between atoms: C2_2  and  C4_4 
REMARK    2  A    between atoms: C4_4  and  C6_6 
REMARK    3  A    between atoms: C6_6  and  C7_7 
REMARK    4  A    between atoms: C7_7  and  C9_9 
REMARK    5  A    between atoms: C13_13  and  O14_14 
REMARK    6  A    between atoms: O14_14  and  C15_15 
REMARK    7  A    between atoms: C15_15  and  C16_16 
ROOT
ATOM      1  C9  UNK d          27.940  27.461   0.023  0.00  0.00    -0.021 A 
ATOM      2  C10 UNK d          27.243  28.339   1.020  0.00  0.00     0.024 A 
ATOM      3  C11 UNK d          25.839  28.025   1.442  0.00  0.00     0.007 A 
ATOM      4  C12 UNK d          25.131  26.834   0.868  0.00  0.00     0.030 A 
ATOM      5  C13 UNK d          25.828  25.956  -0.129  0.00  0.00     0.119 A 
ATOM      6  C22 UNK d          27.233  26.270  -0.552  0.00  0.00     0.053 A 
ENDROOT
BRANCH   1   7
ATOM      7  C7  UNK d          29.345  27.775  -0.400  0.00  0.00     0.104 C 
ATOM      8  O8  UNK d          29.740  29.191  -0.697  0.00  0.00    -0.195 OA
BRANCH   7   9
ATOM      9  C6  UNK d          30.354  26.673  -0.525  0.00  0.00     0.098 C 
BRANCH   9  10
ATOM     10  C4  UNK d          30.374  25.557   0.477  0.00  0.00     0.245 C 
ATOM     11  O5  UNK d          30.425  24.132   0.012  0.00  0.00    -0.211 OA
BRANCH  10  12
ATOM     12  C2  UNK d          30.343  25.865   1.945  0.00  0.00     0.218 C 
ATOM     13  O1  UNK d          30.364  24.749   2.947  0.00  0.00    -0.645 OA
ATOM     14  O3  UNK d          30.291  27.290   2.410  0.00  0.00    -0.645 OA
ENDBRANCH  10  12
ENDBRANCH   9  10
ENDBRANCH   7   9
ENDBRANCH   1   7
BRANCH   5  15
ATOM     15  O14 UNK d          25.120  24.765  -0.704  0.00  0.00    -0.356 OA
BRANCH  15  16
ATOM     16  C15 UNK d          25.780  23.418  -0.681  0.00  0.00     0.142 C 
BRANCH  16  17
ATOM     17  C16 UNK d          27.063  23.223   0.072  0.00  0.00     0.030 A 
ATOM     18  C17 UNK d          27.057  23.211   1.572  0.00  0.00     0.003 A 
ATOM     19  C18 UNK d          28.340  23.016   2.325  0.00  0.00     0.000 A 
ATOM     20  C19 UNK d          29.628  22.835   1.578  0.00  0.00     0.000 A 
ATOM     21  C20 UNK d          29.633  22.847   0.078  0.00  0.00     0.000 A 
ATOM     22  C21 UNK d          28.351  23.042  -0.675  0.00  0.00     0.003 A 
ENDBRANCH  16  17
ENDBRANCH  15  16
ENDBRANCH   5  15
TORSDOF 7
ENDMDL
