MODEL 1
REMARK VINA RESULT:     139.3      0.000      0.000
REMARK  4 active torsions:
REMARK  status: ('A' for Active; 'I' for Inactive)
REMARK    1  A    between atoms: C2_2  and  C9_9 
REMARK    2  A    between atoms: C9_9  and  C10_10 
REMARK    3  A    between atoms: C10_10  and  S12_12 
REMARK    4  A    between atoms: S12_12  and  C13_13 
ROOT
ATOM      1  C9  UNK d          26.355  23.941   0.174  0.00  0.00     0.202 C 
ATOM      2  O11 UNK d          25.773  23.392  -0.026  0.00  0.00    -0.286 OA
ENDROOT
BRANCH   1   3
ATOM      3  C2  UNK d          27.151  23.726   0.154  0.00  0.00     0.043 A 
ATOM      4  C1  UNK d          27.409  23.051   0.559  0.00  0.00     0.007 A 
ATOM      5  C6  UNK d          28.201  22.835   0.540  0.00  0.00     0.045 A 
ATOM      6  C5  UNK d          28.745  23.289   0.118  0.00  0.00     0.234 A 
ATOM      7  C4  UNK d          28.491  23.966  -0.290  0.00  0.00     0.234 A 
ATOM      8  O7  UNK d          29.539  23.071   0.100  0.00  0.00    -0.283 OA
ATOM      9  C3  UNK d          27.692  24.183  -0.270  0.00  0.00     0.049 A 
ATOM     10  O8  UNK d          29.032  24.422  -0.714  0.00  0.00    -0.283 OA
ENDBRANCH   1   3
BRANCH   1  11
ATOM     11  C10 UNK d          26.141  24.707   0.394  0.00  0.00     0.080 C 
BRANCH  11  12
ATOM     12  S12 UNK d          25.572  24.824   0.980  0.00  0.00    -0.045 SA
BRANCH  12  13
ATOM     13  C13 UNK d          25.757  25.262   1.654  0.00  0.00     0.197 A 
ATOM     14  N14 UNK d          25.197  25.783   1.974  0.00  0.00    -0.221 NA
ATOM     15  C18 UNK d          25.378  26.222   2.646  0.00  0.00     0.088 A 
ATOM     16  C17 UNK d          26.121  26.141   3.000  0.00  0.00     0.082 A 
ATOM     17  C19 UNK d          24.822  26.741   2.966  0.00  0.00     0.021 C 
ATOM     18  C16 UNK d          26.679  25.621   2.679  0.00  0.00     0.283 A 
ATOM     19  N15 UNK d          26.490  25.184   2.005  0.00  0.00    -0.183 NA
ATOM     20  O20 UNK d          27.420  25.540   3.032  0.00  0.00    -0.265 OA
ENDBRANCH  12  13
ENDBRANCH  11  12
ENDBRANCH   1  11
TORSDOF 4
ENDMDL
MODEL 2
REMARK VINA RESULT:     139.6      1.802      4.458
REMARK  4 active torsions:
REMARK  status: ('A' for Active; 'I' for Inactive)
REMARK    1  A    between atoms: C2_2  and  C9_9 
REMARK    2  A    between atoms: C9_9  and  C10_10 
REMARK    3  A    between atoms: C10_10  and  S12_12 
REMARK    4  A    between atoms: S12_12  and  C13_13 
ROOT
ATOM      1  C9  UNK d          25.917  25.930   2.939  0.00  0.00     0.202 C 
ATOM      2  O11 UNK d          25.269  25.425   3.015  0.00  0.00    -0.286 OA
ENDROOT
BRANCH   1   3
ATOM      3  C2  UNK d          25.808  26.747   2.960  0.00  0.00     0.043 A 
ATOM      4  C1  UNK d          25.043  27.064   2.972  0.00  0.00     0.007 A 
ATOM      5  C6  UNK d          24.933  27.878   2.992  0.00  0.00     0.045 A 
ATOM      6  C5  UNK d          25.583  28.384   3.000  0.00  0.00     0.234 A 
ATOM      7  C4  UNK d          26.352  28.071   2.988  0.00  0.00     0.234 A 
ATOM      8  O7  UNK d          25.471  29.200   3.021  0.00  0.00    -0.283 OA
ATOM      9  C3  UNK d          26.462  27.251   2.968  0.00  0.00     0.049 A 
ATOM     10  O8  UNK d          27.005  28.575   2.996  0.00  0.00    -0.283 OA
ENDBRANCH   1   3
BRANCH   1  11
ATOM     11  C10 UNK d          26.674  25.618   2.844  0.00  0.00     0.080 C 
BRANCH  11  12
ATOM     12  S12 UNK d          26.771  24.822   2.648  0.00  0.00    -0.045 SA
BRANCH  12  13
ATOM     13  C13 UNK d          26.572  24.556   1.892  0.00  0.00     0.197 A 
ATOM     14  N14 UNK d          27.053  23.999   1.512  0.00  0.00    -0.221 NA
ATOM     15  C18 UNK d          26.858  23.731   0.757  0.00  0.00     0.088 A 
ATOM     16  C17 UNK d          26.180  24.022   0.383  0.00  0.00     0.082 A 
ATOM     17  C19 UNK d          27.336  23.176   0.378  0.00  0.00     0.021 C 
ATOM     18  C16 UNK d          25.702  24.577   0.764  0.00  0.00     0.283 A 
ATOM     19  N15 UNK d          25.903  24.842   1.520  0.00  0.00    -0.183 NA
ATOM     20  O20 UNK d          25.026  24.867   0.391  0.00  0.00    -0.265 OA
ENDBRANCH  12  13
ENDBRANCH  11  12
ENDBRANCH   1  11
TORSDOF 4
ENDMDL
