MODEL 1
REMARK VINA RESULT:     271.6      0.000      0.000
REMARK  3 active torsions:
REMARK  status: ('A' for Active; 'I' for Inactive)
REMARK    1  A    between atoms: C1_1  and  C5_5 
REMARK    2  A    between atoms: C2_2  and  C5_5 
REMARK    3  A    between atoms: C5_5  and  C12_12 
ROOT
ATOM      1  C5  UNK d          25.908  25.807   1.925  0.00  0.00     0.017 C 
ENDROOT
BRANCH   1   2
ATOM      2  C1  UNK d          25.771  26.330   2.200  0.00  0.00     0.103 A 
ATOM      3  C3  UNK d          26.181  26.787   2.215  0.00  0.00     0.203 A 
ATOM      4  C10 UNK d          26.042  27.303   2.488  0.00  0.00     0.062 A 
ATOM      5  O25 UNK d          26.717  26.714   1.957  0.00  0.00    -0.286 OA
ATOM      6  C28 UNK d          26.449  27.752   2.501  0.00  0.00     0.005 A 
ATOM      7  C13 UNK d          25.498  27.376   2.750  0.00  0.00     0.106 A 
ATOM      8  C31 UNK d          26.313  28.275   2.776  0.00  0.00     0.000 A 
ATOM      9  C33 UNK d          25.776  28.348   3.035  0.00  0.00     0.002 A 
ATOM     10  C30 UNK d          25.366  27.899   3.024  0.00  0.00     0.025 A 
ATOM     11  O8  UNK d          25.097  26.934   2.738  0.00  0.00    -0.273 OA
ATOM     12  C6  UNK d          25.228  26.404   2.462  0.00  0.00     0.303 A 
ATOM     13  O18 UNK d          24.876  26.055   2.468  0.00  0.00    -0.259 OA
ENDBRANCH   1   2
BRANCH   1  14
ATOM     14  C2  UNK d          25.725  25.705   1.358  0.00  0.00     0.103 A 
ATOM     15  C4  UNK d          26.045  25.342   0.989  0.00  0.00     0.203 A 
ATOM     16  C11 UNK d          25.862  25.240   0.422  0.00  0.00     0.062 A 
ATOM     17  O24 UNK d          26.558  25.080   1.199  0.00  0.00    -0.286 OA
ATOM     18  C27 UNK d          26.182  24.880   0.056  0.00  0.00     0.005 A 
ATOM     19  C14 UNK d          25.357  25.501   0.218  0.00  0.00     0.106 A 
ATOM     20  C32 UNK d          25.999  24.778  -0.511  0.00  0.00     0.000 A 
ATOM     21  C34 UNK d          25.494  25.038  -0.714  0.00  0.00     0.002 A 
ATOM     22  C29 UNK d          25.167  25.402  -0.352  0.00  0.00     0.025 A 
ATOM     23  O9  UNK d          25.030  25.867   0.585  0.00  0.00    -0.273 OA
ATOM     24  C7  UNK d          25.219  25.965   1.155  0.00  0.00     0.303 A 
ATOM     25  O17 UNK d          24.819  26.269   1.240  0.00  0.00    -0.259 OA
ENDBRANCH   1  14
BRANCH   1  26
ATOM     26  C12 UNK d          26.232  25.379   2.222  0.00  0.00     0.003 A 
ATOM     27  C15 UNK d          26.159  24.796   2.080  0.00  0.00     0.026 A 
ATOM     28  C16 UNK d          26.484  24.377   2.379  0.00  0.00     0.119 A 
ATOM     29  O20 UNK d          26.500  23.763   2.329  0.00  0.00    -0.300 OA
ATOM     30  C19 UNK d          26.876  24.539   2.813  0.00  0.00     0.119 A 
ATOM     31  C22 UNK d          26.903  23.554   2.733  0.00  0.00     0.304 A 
ATOM     32  O21 UNK d          27.138  24.032   3.035  0.00  0.00    -0.300 OA
ATOM     33  C26 UNK d          26.948  25.128   2.954  0.00  0.00     0.026 A 
ATOM     34  C23 UNK d          26.625  25.550   2.658  0.00  0.00     0.002 A 
ENDBRANCH   1  26
TORSDOF 3
ENDMDL
MODEL 2
REMARK VINA RESULT:     274.2      0.657      2.285
REMARK  3 active torsions:
REMARK  status: ('A' for Active; 'I' for Inactive)
REMARK    1  A    between atoms: C1_1  and  C5_5 
REMARK    2  A    between atoms: C2_2  and  C5_5 
REMARK    3  A    between atoms: C5_5  and  C12_12 
ROOT
ATOM      1  C5  UNK d          25.857  25.347   1.821  0.00  0.00     0.017 C 
ENDROOT
BRANCH   1   2
ATOM      2  C1  UNK d          25.598  25.805   2.125  0.00  0.00     0.103 A 
ATOM      3  C3  UNK d          25.860  26.360   2.129  0.00  0.00     0.203 A 
ATOM      4  C10 UNK d          25.601  26.809   2.430  0.00  0.00     0.062 A 
ATOM      5  O25 UNK d          26.373  26.448   1.832  0.00  0.00    -0.286 OA
ATOM      6  C28 UNK d          25.863  27.356   2.433  0.00  0.00     0.005 A 
ATOM      7  C13 UNK d          25.081  26.719   2.732  0.00  0.00     0.106 A 
ATOM      8  C31 UNK d          25.605  27.814   2.736  0.00  0.00     0.000 A 
ATOM      9  C33 UNK d          25.091  27.725   3.034  0.00  0.00     0.002 A 
ATOM     10  C30 UNK d          24.826  27.177   3.033  0.00  0.00     0.025 A 
ATOM     11  O8  UNK d          24.823  26.180   2.730  0.00  0.00    -0.273 OA
ATOM     12  C6  UNK d          25.078  25.714   2.426  0.00  0.00     0.303 A 
ATOM     13  O18 UNK d          24.841  25.280   2.442  0.00  0.00    -0.259 OA
ENDBRANCH   1   2
BRANCH   1  14
ATOM     14  C2  UNK d          26.226  24.963   2.107  0.00  0.00     0.103 A 
ATOM     15  C4  UNK d          26.187  24.364   2.008  0.00  0.00     0.203 A 
ATOM     16  C11 UNK d          26.556  23.979   2.293  0.00  0.00     0.062 A 
ATOM     17  O24 UNK d          25.769  24.153   1.613  0.00  0.00    -0.286 OA
ATOM     18  C27 UNK d          26.516  23.384   2.193  0.00  0.00     0.005 A 
ATOM     19  C14 UNK d          26.967  24.191   2.682  0.00  0.00     0.106 A 
ATOM     20  C32 UNK d          26.885  23.000   2.479  0.00  0.00     0.000 A 
ATOM     21  C34 UNK d          27.296  23.212   2.868  0.00  0.00     0.002 A 
ATOM     22  C29 UNK d          27.341  23.810   2.973  0.00  0.00     0.025 A 
ATOM     23  O9  UNK d          27.011  24.793   2.786  0.00  0.00    -0.273 OA
ATOM     24  C7  UNK d          26.637  25.175   2.495  0.00  0.00     0.303 A 
ATOM     25  O17 UNK d          26.853  25.573   2.731  0.00  0.00    -0.259 OA
ENDBRANCH   1  14
BRANCH   1  26
ATOM     26  C12 UNK d          25.745  25.274   1.223  0.00  0.00     0.003 A 
ATOM     27  C15 UNK d          26.193  25.107   0.852  0.00  0.00     0.026 A 
ATOM     28  C16 UNK d          26.074  25.036   0.260  0.00  0.00     0.119 A 
ATOM     29  O20 UNK d          26.437  24.872  -0.211  0.00  0.00    -0.300 OA
ATOM     30  C19 UNK d          25.516  25.130   0.041  0.00  0.00     0.119 A 
ATOM     31  C22 UNK d          26.096  24.867  -0.714  0.00  0.00     0.304 A 
ATOM     32  O21 UNK d          25.526  25.027  -0.563  0.00  0.00    -0.300 OA
ATOM     33  C26 UNK d          25.065  25.298   0.417  0.00  0.00     0.026 A 
ATOM     34  C23 UNK d          25.180  25.370   1.009  0.00  0.00     0.002 A 
ENDBRANCH   1  26
TORSDOF 3
ENDMDL
