MODEL 1
REMARK VINA RESULT:     100.3      0.000      0.000
REMARK  4 active torsions:
REMARK  status: ('A' for Active; 'I' for Inactive)
REMARK    1  A    between atoms: C2_2  and  C4_4 
REMARK    2  A    between atoms: C4_4  and  C6_6 
REMARK    3  A    between atoms: C6_6  and  C7_7 
REMARK    4  A    between atoms: C7_7  and  C9_9 
ROOT
ATOM      1  C7  UNK d          28.663  24.497  -0.691  0.00  0.00     0.104 C 
ATOM      2  O8  UNK d          29.926  23.689  -0.696  0.00  0.00    -0.195 OA
ENDROOT
BRANCH   1   3
ATOM      3  C6  UNK d          27.331  23.807  -0.681  0.00  0.00     0.098 C 
BRANCH   3   4
ATOM      4  C4  UNK d          26.400  23.990   0.481  0.00  0.00     0.245 C 
ATOM      5  O5  UNK d          26.186  22.870   1.455  0.00  0.00    -0.211 OA
BRANCH   4   6
ATOM      6  C2  UNK d          25.684  25.295   0.670  0.00  0.00     0.218 C 
ATOM      7  O1  UNK d          24.919  25.902  -0.469  0.00  0.00    -0.645 OA
ATOM      8  O3  UNK d          25.732  25.992   1.997  0.00  0.00    -0.645 OA
ENDBRANCH   4   6
ENDBRANCH   3   4
ENDBRANCH   1   3
BRANCH   1   9
ATOM      9  C9  UNK d          28.731  25.995  -0.698  0.00  0.00    -0.023 A 
ATOM     10  C10 UNK d          30.063  26.685  -0.703  0.00  0.00     0.024 A 
ATOM     11  C11 UNK d          30.131  28.184  -0.709  0.00  0.00     0.004 A 
ATOM     12  C12 UNK d          28.867  28.992  -0.711  0.00  0.00     0.001 A 
ATOM     13  C13 UNK d          27.535  28.302  -0.706  0.00  0.00     0.004 A 
ATOM     14  C14 UNK d          27.467  26.804  -0.699  0.00  0.00     0.024 A 
ENDBRANCH   1   9
TORSDOF 4
ENDMDL
MODEL 2
REMARK VINA RESULT:     100.7      0.591      2.092
REMARK  4 active torsions:
REMARK  status: ('A' for Active; 'I' for Inactive)
REMARK    1  A    between atoms: C2_2  and  C4_4 
REMARK    2  A    between atoms: C4_4  and  C6_6 
REMARK    3  A    between atoms: C6_6  and  C7_7 
REMARK    4  A    between atoms: C7_7  and  C9_9 
ROOT
ATOM      1  C7  UNK d          28.664  24.512  -0.700  0.00  0.00     0.104 C 
ATOM      2  O8  UNK d          29.899  23.662  -0.714  0.00  0.00    -0.195 OA
ENDROOT
BRANCH   1   3
ATOM      3  C6  UNK d          27.310  23.867  -0.681  0.00  0.00     0.098 C 
BRANCH   3   4
ATOM      4  C4  UNK d          26.217  24.441   0.172  0.00  0.00     0.245 C 
ATOM      5  O5  UNK d          25.127  25.259  -0.455  0.00  0.00    -0.211 OA
BRANCH   4   6
ATOM      6  C2  UNK d          26.215  24.196   1.652  0.00  0.00     0.218 C 
ATOM      7  O1  UNK d          27.018  23.067   2.227  0.00  0.00    -0.645 OA
ATOM      8  O3  UNK d          25.409  25.081   2.556  0.00  0.00    -0.645 OA
ENDBRANCH   4   6
ENDBRANCH   3   4
ENDBRANCH   1   3
BRANCH   1   9
ATOM      9  C9  UNK d          28.782  26.007  -0.704  0.00  0.00    -0.023 A 
ATOM     10  C10 UNK d          27.546  26.858  -0.710  0.00  0.00     0.024 A 
ATOM     11  C11 UNK d          27.665  28.353  -0.714  0.00  0.00     0.004 A 
ATOM     12  C12 UNK d          29.019  28.998  -0.712  0.00  0.00     0.001 A 
ATOM     13  C13 UNK d          30.254  28.148  -0.706  0.00  0.00     0.004 A 
ATOM     14  C14 UNK d          30.136  26.653  -0.702  0.00  0.00     0.024 A 
ENDBRANCH   1   9
TORSDOF 4
ENDMDL
