MODEL 1
REMARK VINA RESULT:      -2.5      0.000      0.000
REMARK  3 active torsions:
REMARK  status: ('A' for Active; 'I' for Inactive)
REMARK    1  A    between atoms: C8_8  and  C11_11 
REMARK    2  A    between atoms: C11_11  and  C12_12 
REMARK    3  A    between atoms: C12_12  and  C13_13 
ROOT
ATOM      1  C1  UNK d          26.030  37.216  28.890  0.00  0.00     0.003 A 
ATOM      2  C2  UNK d          26.423  36.810  28.285  0.00  0.00     0.044 A 
ATOM      3  C3  UNK d          26.274  36.009  28.161  0.00  0.00     0.213 A 
ATOM      4  C4  UNK d          25.490  36.823  29.369  0.00  0.00     0.002 A 
ATOM      5  C5  UNK d          25.337  36.020  29.250  0.00  0.00     0.021 A 
ATOM      6  C6  UNK d          25.729  35.613  28.645  0.00  0.00     0.120 A 
ATOM      7  N7  UNK d          25.577  34.810  28.523  0.00  0.00    -0.242 NA
ATOM      8  C8  UNK d          25.033  34.414  29.005  0.00  0.00     0.082 A 
ATOM      9  C9  UNK d          24.643  34.826  29.611  0.00  0.00     0.019 A 
ATOM     10  C10 UNK d          24.796  35.627  29.730  0.00  0.00     0.003 A 
ATOM     11  O19 UNK d          26.664  35.603  27.558  0.00  0.00    -0.285 OA
ENDROOT
BRANCH   8  12
ATOM     12  C11 UNK d          24.881  33.612  28.884  0.00  0.00     0.019 C 
BRANCH  12  13
ATOM     13  C12 UNK d          24.155  33.373  28.577  0.00  0.00     0.002 C 
BRANCH  13  14
ATOM     14  C13 UNK d          24.032  32.582  28.375  0.00  0.00     0.000 A 
ATOM     15  C14 UNK d          23.940  32.017  28.967  0.00  0.00     0.000 A 
ATOM     16  C15 UNK d          23.818  31.227  28.764  0.00  0.00     0.000 A 
ATOM     17  C16 UNK d          23.789  31.003  27.970  0.00  0.00     0.000 A 
ATOM     18  C17 UNK d          23.882  31.576  27.377  0.00  0.00     0.000 A 
ATOM     19  C18 UNK d          24.004  32.363  27.582  0.00  0.00     0.000 A 
ENDBRANCH  13  14
ENDBRANCH  12  13
ENDBRANCH   8  12
TORSDOF 3
ENDMDL
MODEL 2
REMARK VINA RESULT:      -2.5      1.219      1.935
REMARK  3 active torsions:
REMARK  status: ('A' for Active; 'I' for Inactive)
REMARK    1  A    between atoms: C8_8  and  C11_11 
REMARK    2  A    between atoms: C11_11  and  C12_12 
REMARK    3  A    between atoms: C12_12  and  C13_13 
ROOT
ATOM      1  C1  UNK d          26.004  35.718  28.706  0.00  0.00     0.003 A 
ATOM      2  C2  UNK d          25.475  35.568  29.326  0.00  0.00     0.044 A 
ATOM      3  C3  UNK d          24.994  34.900  29.304  0.00  0.00     0.213 A 
ATOM      4  C4  UNK d          26.051  35.203  28.069  0.00  0.00     0.002 A 
ATOM      5  C5  UNK d          25.571  34.531  28.042  0.00  0.00     0.021 A 
ATOM      6  C6  UNK d          25.042  34.379  28.660  0.00  0.00     0.120 A 
ATOM      7  N7  UNK d          24.561  33.709  28.636  0.00  0.00    -0.242 NA
ATOM      8  C8  UNK d          24.608  33.189  27.993  0.00  0.00     0.082 A 
ATOM      9  C9  UNK d          25.140  33.345  27.375  0.00  0.00     0.019 A 
ATOM     10  C10 UNK d          25.619  34.015  27.402  0.00  0.00     0.003 A 
ATOM     11  O19 UNK d          24.467  34.749  29.920  0.00  0.00    -0.285 OA
ENDROOT
BRANCH   8  12
ATOM     12  C11 UNK d          24.127  32.518  27.967  0.00  0.00     0.019 C 
BRANCH  12  13
ATOM     13  C12 UNK d          24.467  31.768  28.005  0.00  0.00     0.002 C 
BRANCH  13  14
ATOM     14  C13 UNK d          23.986  31.102  28.098  0.00  0.00     0.000 A 
ATOM     15  C14 UNK d          23.796  30.837  28.854  0.00  0.00     0.000 A 
ATOM     16  C15 UNK d          23.317  30.172  28.946  0.00  0.00     0.000 A 
ATOM     17  C16 UNK d          23.027  29.775  28.283  0.00  0.00     0.000 A 
ATOM     18  C17 UNK d          23.222  30.047  27.523  0.00  0.00     0.000 A 
ATOM     19  C18 UNK d          23.700  30.710  27.434  0.00  0.00     0.000 A 
ENDBRANCH  13  14
ENDBRANCH  12  13
ENDBRANCH   8  12
TORSDOF 3
ENDMDL
MODEL 3
REMARK VINA RESULT:      -2.4      1.622      4.669
REMARK  3 active torsions:
REMARK  status: ('A' for Active; 'I' for Inactive)
REMARK    1  A    between atoms: C8_8  and  C11_11 
REMARK    2  A    between atoms: C11_11  and  C12_12 
REMARK    3  A    between atoms: C12_12  and  C13_13 
ROOT
ATOM      1  C1  UNK d          23.459  30.091  28.878  0.00  0.00     0.003 A 
ATOM      2  C2  UNK d          23.533  30.523  29.581  0.00  0.00     0.044 A 
ATOM      3  C3  UNK d          23.791  31.306  29.558  0.00  0.00     0.213 A 
ATOM      4  C4  UNK d          23.642  30.439  28.157  0.00  0.00     0.002 A 
ATOM      5  C5  UNK d          23.902  31.223  28.129  0.00  0.00     0.021 A 
ATOM      6  C6  UNK d          23.976  31.657  28.830  0.00  0.00     0.120 A 
ATOM      7  N7  UNK d          24.235  32.441  28.805  0.00  0.00    -0.242 NA
ATOM      8  C8  UNK d          24.420  32.792  28.078  0.00  0.00     0.082 A 
ATOM      9  C9  UNK d          24.344  32.353  27.377  0.00  0.00     0.019 A 
ATOM     10  C10 UNK d          24.085  31.571  27.405  0.00  0.00     0.003 A 
ATOM     11  O19 UNK d          23.866  31.738  30.257  0.00  0.00    -0.285 OA
ENDROOT
BRANCH   8  12
ATOM     12  C11 UNK d          24.679  33.575  28.051  0.00  0.00     0.019 C 
BRANCH  12  13
ATOM     13  C12 UNK d          25.485  33.743  28.084  0.00  0.00     0.002 C 
BRANCH  13  14
ATOM     14  C13 UNK d          25.744  34.527  28.082  0.00  0.00     0.000 A 
ATOM     15  C14 UNK d          25.737  34.962  28.780  0.00  0.00     0.000 A 
ATOM     16  C15 UNK d          25.995  35.745  28.778  0.00  0.00     0.000 A 
ATOM     17  C16 UNK d          26.260  36.092  28.077  0.00  0.00     0.000 A 
ATOM     18  C17 UNK d          26.264  35.648  27.375  0.00  0.00     0.000 A 
ATOM     19  C18 UNK d          26.006  34.868  27.380  0.00  0.00     0.000 A 
ENDBRANCH  13  14
ENDBRANCH  12  13
ENDBRANCH   8  12
TORSDOF 3
ENDMDL
MODEL 4
REMARK VINA RESULT:      -2.4      1.912      4.681
REMARK  3 active torsions:
REMARK  status: ('A' for Active; 'I' for Inactive)
REMARK    1  A    between atoms: C8_8  and  C11_11 
REMARK    2  A    between atoms: C11_11  and  C12_12 
REMARK    3  A    between atoms: C12_12  and  C13_13 
ROOT
ATOM      1  C1  UNK d          23.796  30.429  27.377  0.00  0.00     0.003 A 
ATOM      2  C2  UNK d          24.604  30.250  27.414  0.00  0.00     0.044 A 
ATOM      3  C3  UNK d          25.154  30.850  27.541  0.00  0.00     0.213 A 
ATOM      4  C4  UNK d          23.540  31.204  27.466  0.00  0.00     0.002 A 
ATOM      5  C5  UNK d          24.087  31.810  27.594  0.00  0.00     0.021 A 
ATOM      6  C6  UNK d          24.895  31.633  27.631  0.00  0.00     0.120 A 
ATOM      7  N7  UNK d          25.444  32.237  27.758  0.00  0.00    -0.242 NA
ATOM      8  C8  UNK d          25.185  33.018  27.848  0.00  0.00     0.082 A 
ATOM      9  C9  UNK d          24.375  33.191  27.810  0.00  0.00     0.019 A 
ATOM     10  C10 UNK d          23.829  32.587  27.683  0.00  0.00     0.003 A 
ATOM     11  O19 UNK d          25.959  30.673  27.579  0.00  0.00    -0.285 OA
ENDROOT
BRANCH   8  12
ATOM     12  C11 UNK d          25.733  33.622  27.975  0.00  0.00     0.019 C 
BRANCH  12  13
ATOM     13  C12 UNK d          25.883  34.173  27.380  0.00  0.00     0.002 C 
BRANCH  13  14
ATOM     14  C13 UNK d          26.490  34.725  27.473  0.00  0.00     0.000 A 
ATOM     15  C14 UNK d          27.275  34.479  27.450  0.00  0.00     0.000 A 
ATOM     16  C15 UNK d          27.881  35.031  27.543  0.00  0.00     0.000 A 
ATOM     17  C16 UNK d          27.700  35.828  27.660  0.00  0.00     0.000 A 
ATOM     18  C17 UNK d          26.907  36.071  27.682  0.00  0.00     0.000 A 
ATOM     19  C18 UNK d          26.305  35.519  27.589  0.00  0.00     0.000 A 
ENDBRANCH  13  14
ENDBRANCH  12  13
ENDBRANCH   8  12
TORSDOF 3
ENDMDL
MODEL 5
REMARK VINA RESULT:      -2.4      1.565      4.646
REMARK  3 active torsions:
REMARK  status: ('A' for Active; 'I' for Inactive)
REMARK    1  A    between atoms: C8_8  and  C11_11 
REMARK    2  A    between atoms: C11_11  and  C12_12 
REMARK    3  A    between atoms: C12_12  and  C13_13 
ROOT
ATOM      1  C1  UNK d          24.605  31.012  27.813  0.00  0.00     0.003 A 
ATOM      2  C2  UNK d          23.968  31.533  27.902  0.00  0.00     0.044 A 
ATOM      3  C3  UNK d          24.088  32.346  27.837  0.00  0.00     0.213 A 
ATOM      4  C4  UNK d          25.358  31.301  27.660  0.00  0.00     0.002 A 
ATOM      5  C5  UNK d          25.484  32.115  27.594  0.00  0.00     0.021 A 
ATOM      6  C6  UNK d          24.849  32.638  27.683  0.00  0.00     0.120 A 
ATOM      7  N7  UNK d          24.972  33.452  27.617  0.00  0.00    -0.242 NA
ATOM      8  C8  UNK d          25.731  33.744  27.463  0.00  0.00     0.082 A 
ATOM      9  C9  UNK d          26.366  33.216  27.375  0.00  0.00     0.019 A 
ATOM     10  C10 UNK d          26.240  32.404  27.441  0.00  0.00     0.003 A 
ATOM     11  O19 UNK d          23.454  32.867  27.925  0.00  0.00    -0.285 OA
ENDROOT
BRANCH   8  12
ATOM     12  C11 UNK d          25.856  34.557  27.398  0.00  0.00     0.019 C 
BRANCH  12  13
ATOM     13  C12 UNK d          26.295  34.954  27.972  0.00  0.00     0.002 C 
BRANCH  13  14
ATOM     14  C13 UNK d          26.329  35.779  27.969  0.00  0.00     0.000 A 
ATOM     15  C14 UNK d          26.766  36.168  27.390  0.00  0.00     0.000 A 
ATOM     16  C15 UNK d          26.799  36.992  27.387  0.00  0.00     0.000 A 
ATOM     17  C16 UNK d          26.395  37.425  27.962  0.00  0.00     0.000 A 
ATOM     18  C17 UNK d          25.956  37.027  28.543  0.00  0.00     0.000 A 
ATOM     19  C18 UNK d          25.924  36.206  28.544  0.00  0.00     0.000 A 
ENDBRANCH  13  14
ENDBRANCH  12  13
ENDBRANCH   8  12
TORSDOF 3
ENDMDL
MODEL 6
REMARK VINA RESULT:      -2.3      1.257      1.756
REMARK  3 active torsions:
REMARK  status: ('A' for Active; 'I' for Inactive)
REMARK    1  A    between atoms: C8_8  and  C11_11 
REMARK    2  A    between atoms: C11_11  and  C12_12 
REMARK    3  A    between atoms: C12_12  and  C13_13 
ROOT
ATOM      1  C1  UNK d          23.921  37.389  30.506  0.00  0.00     0.003 A 
ATOM      2  C2  UNK d          24.594  37.275  30.037  0.00  0.00     0.044 A 
ATOM      3  C3  UNK d          24.760  36.529  29.730  0.00  0.00     0.213 A 
ATOM      4  C4  UNK d          23.417  36.761  30.667  0.00  0.00     0.002 A 
ATOM      5  C5  UNK d          23.578  36.010  30.361  0.00  0.00     0.021 A 
ATOM      6  C6  UNK d          24.251  35.894  29.892  0.00  0.00     0.120 A 
ATOM      7  N7  UNK d          24.414  35.145  29.586  0.00  0.00    -0.242 NA
ATOM      8  C8  UNK d          23.907  34.512  29.747  0.00  0.00     0.082 A 
ATOM      9  C9  UNK d          23.234  34.633  30.218  0.00  0.00     0.019 A 
ATOM     10  C10 UNK d          23.072  35.381  30.523  0.00  0.00     0.003 A 
ATOM     11  O19 UNK d          25.430  36.413  29.262  0.00  0.00    -0.285 OA
ENDROOT
BRANCH   8  12
ATOM     12  C11 UNK d          24.070  33.763  29.441  0.00  0.00     0.019 C 
BRANCH  12  13
ATOM     13  C12 UNK d          23.528  33.398  28.937  0.00  0.00     0.002 C 
BRANCH  13  14
ATOM     14  C13 UNK d          23.734  32.700  28.547  0.00  0.00     0.000 A 
ATOM     15  C14 UNK d          23.986  32.727  27.764  0.00  0.00     0.000 A 
ATOM     16  C15 UNK d          24.191  32.029  27.375  0.00  0.00     0.000 A 
ATOM     17  C16 UNK d          24.145  31.306  27.770  0.00  0.00     0.000 A 
ATOM     18  C17 UNK d          23.891  31.284  28.560  0.00  0.00     0.000 A 
ATOM     19  C18 UNK d          23.687  31.981  28.945  0.00  0.00     0.000 A 
ENDBRANCH  13  14
ENDBRANCH  12  13
ENDBRANCH   8  12
TORSDOF 3
ENDMDL
MODEL 7
REMARK VINA RESULT:      -2.3      0.912      1.339
REMARK  3 active torsions:
REMARK  status: ('A' for Active; 'I' for Inactive)
REMARK    1  A    between atoms: C8_8  and  C11_11 
REMARK    2  A    between atoms: C11_11  and  C12_12 
REMARK    3  A    between atoms: C12_12  and  C13_13 
ROOT
ATOM      1  C1  UNK d          26.412  37.174  28.305  0.00  0.00     0.003 A 
ATOM      2  C2  UNK d          25.945  37.050  28.977  0.00  0.00     0.044 A 
ATOM      3  C3  UNK d          25.611  36.310  29.116  0.00  0.00     0.213 A 
ATOM      4  C4  UNK d          26.544  36.561  27.774  0.00  0.00     0.002 A 
ATOM      5  C5  UNK d          26.212  35.817  27.908  0.00  0.00     0.021 A 
ATOM      6  C6  UNK d          25.744  35.691  28.580  0.00  0.00     0.120 A 
ATOM      7  N7  UNK d          25.411  34.948  28.716  0.00  0.00    -0.242 NA
ATOM      8  C8  UNK d          25.544  34.330  28.181  0.00  0.00     0.082 A 
ATOM      9  C9  UNK d          26.013  34.461  27.509  0.00  0.00     0.019 A 
ATOM     10  C10 UNK d          26.345  35.204  27.375  0.00  0.00     0.003 A 
ATOM     11  O19 UNK d          25.145  36.184  29.785  0.00  0.00    -0.285 OA
ENDROOT
BRANCH   8  12
ATOM     12  C11 UNK d          25.211  33.588  28.316  0.00  0.00     0.019 C 
BRANCH  12  13
ATOM     13  C12 UNK d          24.514  33.373  27.932  0.00  0.00     0.002 C 
BRANCH  13  14
ATOM     14  C13 UNK d          24.206  32.613  28.029  0.00  0.00     0.000 A 
ATOM     15  C14 UNK d          23.922  32.377  28.764  0.00  0.00     0.000 A 
ATOM     16  C15 UNK d          23.615  31.617  28.860  0.00  0.00     0.000 A 
ATOM     17  C16 UNK d          23.593  31.095  28.221  0.00  0.00     0.000 A 
ATOM     18  C17 UNK d          23.881  31.339  27.481  0.00  0.00     0.000 A 
ATOM     19  C18 UNK d          24.187  32.096  27.388  0.00  0.00     0.000 A 
ENDBRANCH  13  14
ENDBRANCH  12  13
ENDBRANCH   8  12
TORSDOF 3
ENDMDL
MODEL 8
REMARK VINA RESULT:      -2.3      2.578      4.719
REMARK  3 active torsions:
REMARK  status: ('A' for Active; 'I' for Inactive)
REMARK    1  A    between atoms: C8_8  and  C11_11 
REMARK    2  A    between atoms: C11_11  and  C12_12 
REMARK    3  A    between atoms: C12_12  and  C13_13 
ROOT
ATOM      1  C1  UNK d          23.878  30.560  27.584  0.00  0.00     0.003 A 
ATOM      2  C2  UNK d          23.787  30.341  28.377  0.00  0.00     0.044 A 
ATOM      3  C3  UNK d          23.731  30.920  28.961  0.00  0.00     0.213 A 
ATOM      4  C4  UNK d          23.913  31.354  27.375  0.00  0.00     0.002 A 
ATOM      5  C5  UNK d          23.857  31.939  27.956  0.00  0.00     0.021 A 
ATOM      6  C6  UNK d          23.766  31.722  28.750  0.00  0.00     0.120 A 
ATOM      7  N7  UNK d          23.710  32.304  29.332  0.00  0.00    -0.242 NA
ATOM      8  C8  UNK d          23.745  33.104  29.122  0.00  0.00     0.082 A 
ATOM      9  C9  UNK d          23.837  33.317  28.325  0.00  0.00     0.019 A 
ATOM     10  C10 UNK d          23.892  32.734  27.745  0.00  0.00     0.003 A 
ATOM     11  O19 UNK d          23.640  30.704  29.752  0.00  0.00    -0.285 OA
ENDROOT
BRANCH   8  12
ATOM     12  C11 UNK d          23.690  33.687  29.703  0.00  0.00     0.019 C 
BRANCH  12  13
ATOM     13  C12 UNK d          22.992  34.119  29.788  0.00  0.00     0.002 C 
BRANCH  13  14
ATOM     14  C13 UNK d          22.918  34.667  30.401  0.00  0.00     0.000 A 
ATOM     15  C14 UNK d          23.131  35.452  30.276  0.00  0.00     0.000 A 
ATOM     16  C15 UNK d          23.057  35.999  30.888  0.00  0.00     0.000 A 
ATOM     17  C16 UNK d          22.769  35.760  31.625  0.00  0.00     0.000 A 
ATOM     18  C17 UNK d          22.556  34.967  31.745  0.00  0.00     0.000 A 
ATOM     19  C18 UNK d          22.631  34.424  31.133  0.00  0.00     0.000 A 
ENDBRANCH  13  14
ENDBRANCH  12  13
ENDBRANCH   8  12
TORSDOF 3
ENDMDL
MODEL 9
REMARK VINA RESULT:      -2.2      2.663      4.114
REMARK  3 active torsions:
REMARK  status: ('A' for Active; 'I' for Inactive)
REMARK    1  A    between atoms: C8_8  and  C11_11 
REMARK    2  A    between atoms: C11_11  and  C12_12 
REMARK    3  A    between atoms: C12_12  and  C13_13 
ROOT
ATOM      1  C1  UNK d          23.711  33.779  29.225  0.00  0.00     0.003 A 
ATOM      2  C2  UNK d          23.558  33.315  29.894  0.00  0.00     0.044 A 
ATOM      3  C3  UNK d          23.543  32.494  29.832  0.00  0.00     0.213 A 
ATOM      4  C4  UNK d          23.850  33.422  28.498  0.00  0.00     0.002 A 
ATOM      5  C5  UNK d          23.836  32.599  28.430  0.00  0.00     0.021 A 
ATOM      6  C6  UNK d          23.682  32.134  29.097  0.00  0.00     0.120 A 
ATOM      7  N7  UNK d          23.668  31.311  29.032  0.00  0.00    -0.242 NA
ATOM      8  C8  UNK d          23.807  30.952  28.299  0.00  0.00     0.082 A 
ATOM      9  C9  UNK d          23.961  31.422  27.632  0.00  0.00     0.019 A 
ATOM     10  C10 UNK d          23.974  32.243  27.700  0.00  0.00     0.003 A 
ATOM     11  O19 UNK d          23.389  32.031  30.497  0.00  0.00    -0.285 OA
ENDROOT
BRANCH   8  12
ATOM     12  C11 UNK d          23.793  30.130  28.233  0.00  0.00     0.019 C 
BRANCH  12  13
ATOM     13  C12 UNK d          23.496  29.777  27.549  0.00  0.00     0.002 C 
BRANCH  13  14
ATOM     14  C13 UNK d          23.383  28.959  27.522  0.00  0.00     0.000 A 
ATOM     15  C14 UNK d          24.028  28.461  27.409  0.00  0.00     0.000 A 
ATOM     16  C15 UNK d          23.916  27.645  27.382  0.00  0.00     0.000 A 
ATOM     17  C16 UNK d          23.158  27.328  27.469  0.00  0.00     0.000 A 
ATOM     18  C17 UNK d          22.511  27.835  27.583  0.00  0.00     0.000 A 
ATOM     19  C18 UNK d          22.626  28.649  27.609  0.00  0.00     0.000 A 
ENDBRANCH  13  14
ENDBRANCH  12  13
ENDBRANCH   8  12
TORSDOF 3
ENDMDL
