MODEL 1
REMARK VINA RESULT:      -4.3      0.000      0.000
REMARK  3 active torsions:
REMARK  status: ('A' for Active; 'I' for Inactive)
REMARK    1  A    between atoms: C1_1  and  C5_5 
REMARK    2  A    between atoms: C2_2  and  C5_5 
REMARK    3  A    between atoms: C5_5  and  C12_12 
ROOT
ATOM      1  C5  UNK d          24.357  32.874  28.612  0.00  0.00     0.017 C 
ENDROOT
BRANCH   1   2
ATOM      2  C1  UNK d          24.903  33.115  28.501  0.00  0.00     0.103 A 
ATOM      3  C3  UNK d          24.975  33.519  28.044  0.00  0.00     0.203 A 
ATOM      4  C10 UNK d          25.516  33.755  27.938  0.00  0.00     0.062 A 
ATOM      5  O25 UNK d          24.504  33.674  27.707  0.00  0.00    -0.286 OA
ATOM      6  C28 UNK d          25.584  34.153  27.486  0.00  0.00     0.005 A 
ATOM      7  C13 UNK d          25.994  33.598  28.280  0.00  0.00     0.106 A 
ATOM      8  C31 UNK d          26.129  34.395  27.375  0.00  0.00     0.000 A 
ATOM      9  C33 UNK d          26.601  34.239  27.712  0.00  0.00     0.002 A 
ATOM     10  C30 UNK d          26.536  33.840  28.167  0.00  0.00     0.025 A 
ATOM     11  O8  UNK d          25.927  33.205  28.726  0.00  0.00    -0.273 OA
ATOM     12  C6  UNK d          25.380  32.958  28.843  0.00  0.00     0.303 A 
ATOM     13  O18 UNK d          25.356  32.636  29.218  0.00  0.00    -0.259 OA
ENDBRANCH   1   2
BRANCH   1  14
ATOM     14  C2  UNK d          24.172  32.387  28.305  0.00  0.00     0.103 A 
ATOM     15  C4  UNK d          24.282  31.827  28.517  0.00  0.00     0.203 A 
ATOM     16  C11 UNK d          24.097  31.340  28.210  0.00  0.00     0.062 A 
ATOM     17  O24 UNK d          24.582  31.761  29.047  0.00  0.00    -0.286 OA
ATOM     18  C27 UNK d          24.206  30.784  28.422  0.00  0.00     0.005 A 
ATOM     19  C14 UNK d          23.801  31.408  27.688  0.00  0.00     0.106 A 
ATOM     20  C32 UNK d          24.022  30.296  28.116  0.00  0.00     0.000 A 
ATOM     21  C34 UNK d          23.726  30.365  27.594  0.00  0.00     0.002 A 
ATOM     22  C29 UNK d          23.612  30.922  27.375  0.00  0.00     0.025 A 
ATOM     23  O9  UNK d          23.688  31.969  27.470  0.00  0.00    -0.273 OA
ATOM     24  C7  UNK d          23.876  32.455  27.783  0.00  0.00     0.303 A 
ATOM     25  O17 UNK d          23.680  32.765  27.428  0.00  0.00    -0.259 OA
ENDBRANCH   1  14
BRANCH   1  26
ATOM     26  C12 UNK d          23.991  33.124  29.035  0.00  0.00     0.003 A 
ATOM     27  C15 UNK d          23.543  33.493  28.864  0.00  0.00     0.026 A 
ATOM     28  C16 UNK d          23.184  33.737  29.290  0.00  0.00     0.119 A 
ATOM     29  O20 UNK d          22.703  34.121  29.245  0.00  0.00    -0.300 OA
ATOM     30  C19 UNK d          23.271  33.614  29.878  0.00  0.00     0.119 A 
ATOM     31  C22 UNK d          22.500  34.229  29.808  0.00  0.00     0.304 A 
ATOM     32  O21 UNK d          22.848  33.918  30.202  0.00  0.00    -0.300 OA
ATOM     33  C26 UNK d          23.723  33.242  30.048  0.00  0.00     0.026 A 
ATOM     34  C23 UNK d          24.084  32.996  29.626  0.00  0.00     0.002 A 
ENDBRANCH   1  26
TORSDOF 3
ENDMDL
MODEL 2
REMARK VINA RESULT:      -4.2      0.676      2.587
REMARK  3 active torsions:
REMARK  status: ('A' for Active; 'I' for Inactive)
REMARK    1  A    between atoms: C1_1  and  C5_5 
REMARK    2  A    between atoms: C2_2  and  C5_5 
REMARK    3  A    between atoms: C5_5  and  C12_12 
ROOT
ATOM      1  C5  UNK d          24.373  32.609  28.353  0.00  0.00     0.017 C 
ENDROOT
BRANCH   1   2
ATOM      2  C1  UNK d          24.853  32.888  28.107  0.00  0.00     0.103 A 
ATOM      3  C3  UNK d          25.413  32.803  28.342  0.00  0.00     0.203 A 
ATOM      4  C10 UNK d          25.885  33.081  28.097  0.00  0.00     0.062 A 
ATOM      5  O25 UNK d          25.486  32.442  28.816  0.00  0.00    -0.286 OA
ATOM      6  C28 UNK d          26.438  32.994  28.332  0.00  0.00     0.005 A 
ATOM      7  C13 UNK d          25.812  33.447  27.617  0.00  0.00     0.106 A 
ATOM      8  C31 UNK d          26.917  33.274  28.087  0.00  0.00     0.000 A 
ATOM      9  C33 UNK d          26.845  33.635  27.613  0.00  0.00     0.002 A 
ATOM     10  C30 UNK d          26.292  33.724  27.375  0.00  0.00     0.025 A 
ATOM     11  O8  UNK d          25.267  33.533  27.385  0.00  0.00    -0.273 OA
ATOM     12  C6  UNK d          24.780  33.254  27.627  0.00  0.00     0.303 A 
ATOM     13  O18 UNK d          24.341  33.344  27.415  0.00  0.00    -0.259 OA
ENDBRANCH   1   2
BRANCH   1  14
ATOM     14  C2  UNK d          24.093  32.850  28.831  0.00  0.00     0.103 A 
ATOM     15  C4  UNK d          23.630  33.237  28.756  0.00  0.00     0.203 A 
ATOM     16  C11 UNK d          23.349  33.479  29.235  0.00  0.00     0.062 A 
ATOM     17  O24 UNK d          23.450  33.382  28.189  0.00  0.00    -0.286 OA
ATOM     18  C27 UNK d          22.889  33.864  29.159  0.00  0.00     0.005 A 
ATOM     19  C14 UNK d          23.530  33.334  29.793  0.00  0.00     0.106 A 
ATOM     20  C32 UNK d          22.609  34.105  29.637  0.00  0.00     0.000 A 
ATOM     21  C34 UNK d          22.789  33.960  30.195  0.00  0.00     0.002 A 
ATOM     22  C29 UNK d          23.252  33.573  30.278  0.00  0.00     0.025 A 
ATOM     23  O9  UNK d          23.995  32.944  29.874  0.00  0.00    -0.273 OA
ATOM     24  C7  UNK d          24.273  32.705  29.389  0.00  0.00     0.303 A 
ATOM     25  O17 UNK d          24.589  32.444  29.693  0.00  0.00    -0.259 OA
ENDBRANCH   1  14
BRANCH   1  26
ATOM     26  C12 UNK d          24.172  32.080  28.116  0.00  0.00     0.003 A 
ATOM     27  C15 UNK d          24.318  31.557  28.382  0.00  0.00     0.026 A 
ATOM     28  C16 UNK d          24.114  31.037  28.142  0.00  0.00     0.119 A 
ATOM     29  O20 UNK d          24.191  30.451  28.316  0.00  0.00    -0.300 OA
ATOM     30  C19 UNK d          23.769  31.040  27.643  0.00  0.00     0.119 A 
ATOM     31  C22 UNK d          23.893  30.099  27.920  0.00  0.00     0.304 A 
ATOM     32  O21 UNK d          23.630  30.460  27.502  0.00  0.00    -0.300 OA
ATOM     33  C26 UNK d          23.623  31.568  27.375  0.00  0.00     0.026 A 
ATOM     34  C23 UNK d          23.825  32.090  27.613  0.00  0.00     0.002 A 
ENDBRANCH   1  26
TORSDOF 3
ENDMDL
MODEL 3
REMARK VINA RESULT:      -4.1      0.551      2.575
REMARK  3 active torsions:
REMARK  status: ('A' for Active; 'I' for Inactive)
REMARK    1  A    between atoms: C1_1  and  C5_5 
REMARK    2  A    between atoms: C2_2  and  C5_5 
REMARK    3  A    between atoms: C5_5  and  C12_12 
ROOT
ATOM      1  C5  UNK d          24.339  32.731  28.455  0.00  0.00     0.017 C 
ENDROOT
BRANCH   1   2
ATOM      2  C1  UNK d          23.940  33.055  28.775  0.00  0.00     0.103 A 
ATOM      3  C3  UNK d          24.004  33.113  29.383  0.00  0.00     0.203 A 
ATOM      4  C10 UNK d          23.607  33.435  29.696  0.00  0.00     0.062 A 
ATOM      5  O25 UNK d          24.466  32.846  29.659  0.00  0.00    -0.286 OA
ATOM      6  C28 UNK d          23.675  33.490  30.297  0.00  0.00     0.005 A 
ATOM      7  C13 UNK d          23.140  33.705  29.416  0.00  0.00     0.106 A 
ATOM      8  C31 UNK d          23.275  33.815  30.617  0.00  0.00     0.000 A 
ATOM      9  C33 UNK d          22.814  34.081  30.341  0.00  0.00     0.002 A 
ATOM     10  C30 UNK d          22.743  34.028  29.739  0.00  0.00     0.025 A 
ATOM     11  O8  UNK d          23.073  33.652  28.825  0.00  0.00    -0.273 OA
ATOM     12  C6  UNK d          23.472  33.326  28.495  0.00  0.00     0.303 A 
ATOM     13  O18 UNK d          23.391  33.299  28.007  0.00  0.00    -0.259 OA
ENDBRANCH   1   2
BRANCH   1  14
ATOM     14  C2  UNK d          24.272  32.132  28.402  0.00  0.00     0.103 A 
ATOM     15  C4  UNK d          23.954  31.895  27.940  0.00  0.00     0.203 A 
ATOM     16  C11 UNK d          23.887  31.297  27.887  0.00  0.00     0.062 A 
ATOM     17  O24 UNK d          23.702  32.271  27.527  0.00  0.00    -0.286 OA
ATOM     18  C27 UNK d          23.570  31.063  27.428  0.00  0.00     0.005 A 
ATOM     19  C14 UNK d          24.137  30.929  28.297  0.00  0.00     0.106 A 
ATOM     20  C32 UNK d          23.503  30.464  27.375  0.00  0.00     0.000 A 
ATOM     21  C34 UNK d          23.753  30.097  27.784  0.00  0.00     0.002 A 
ATOM     22  C29 UNK d          24.073  30.326  28.249  0.00  0.00     0.025 A 
ATOM     23  O9  UNK d          24.458  31.161  28.763  0.00  0.00    -0.273 OA
ATOM     24  C7  UNK d          24.522  31.765  28.811  0.00  0.00     0.303 A 
ATOM     25  O17 UNK d          24.799  31.706  29.235  0.00  0.00    -0.259 OA
ENDBRANCH   1  14
BRANCH   1  26
ATOM     26  C12 UNK d          24.814  33.008  28.183  0.00  0.00     0.003 A 
ATOM     27  C15 UNK d          25.357  33.000  28.447  0.00  0.00     0.026 A 
ATOM     28  C16 UNK d          25.823  33.278  28.172  0.00  0.00     0.119 A 
ATOM     29  O20 UNK d          26.415  33.339  28.335  0.00  0.00    -0.300 OA
ATOM     30  C19 UNK d          25.746  33.560  27.640  0.00  0.00     0.119 A 
ATOM     31  C22 UNK d          26.695  33.658  27.901  0.00  0.00     0.304 A 
ATOM     32  O21 UNK d          26.285  33.797  27.469  0.00  0.00    -0.300 OA
ATOM     33  C26 UNK d          25.197  33.567  27.375  0.00  0.00     0.026 A 
ATOM     34  C23 UNK d          24.729  33.291  27.647  0.00  0.00     0.002 A 
ENDBRANCH   1  26
TORSDOF 3
ENDMDL
MODEL 4
REMARK VINA RESULT:      -4.1      0.322      2.482
REMARK  3 active torsions:
REMARK  status: ('A' for Active; 'I' for Inactive)
REMARK    1  A    between atoms: C1_1  and  C5_5 
REMARK    2  A    between atoms: C2_2  and  C5_5 
REMARK    3  A    between atoms: C5_5  and  C12_12 
ROOT
ATOM      1  C5  UNK d          24.389  32.786  28.591  0.00  0.00     0.017 C 
ENDROOT
BRANCH   1   2
ATOM      2  C1  UNK d          24.325  32.191  28.493  0.00  0.00     0.103 A 
ATOM      3  C3  UNK d          23.979  31.990  28.028  0.00  0.00     0.203 A 
ATOM      4  C10 UNK d          23.918  31.401  27.935  0.00  0.00     0.062 A 
ATOM      5  O25 UNK d          23.703  32.385  27.671  0.00  0.00    -0.286 OA
ATOM      6  C28 UNK d          23.575  31.206  27.474  0.00  0.00     0.005 A 
ATOM      7  C13 UNK d          24.197  31.001  28.297  0.00  0.00     0.106 A 
ATOM      8  C31 UNK d          23.511  30.611  27.376  0.00  0.00     0.000 A 
ATOM      9  C33 UNK d          23.786  30.216  27.734  0.00  0.00     0.002 A 
ATOM     10  C30 UNK d          24.131  30.408  28.197  0.00  0.00     0.025 A 
ATOM     11  O8  UNK d          24.536  31.192  28.751  0.00  0.00    -0.273 OA
ATOM     12  C6  UNK d          24.605  31.791  28.856  0.00  0.00     0.303 A 
ATOM     13  O18 UNK d          24.891  31.920  29.239  0.00  0.00    -0.259 OA
ENDBRANCH   1   2
BRANCH   1  14
ATOM     14  C2  UNK d          24.809  33.101  28.290  0.00  0.00     0.103 A 
ATOM     15  C4  UNK d          25.369  33.168  28.517  0.00  0.00     0.203 A 
ATOM     16  C11 UNK d          25.788  33.483  28.216  0.00  0.00     0.062 A 
ATOM     17  O24 UNK d          25.505  32.913  29.058  0.00  0.00    -0.286 OA
ATOM     18  C27 UNK d          26.345  33.549  28.444  0.00  0.00     0.005 A 
ATOM     19  C14 UNK d          25.651  33.733  27.684  0.00  0.00     0.106 A 
ATOM     20  C32 UNK d          26.764  33.863  28.142  0.00  0.00     0.000 A 
ATOM     21  C34 UNK d          26.627  34.113  27.610  0.00  0.00     0.002 A 
ATOM     22  C29 UNK d          26.069  34.050  27.376  0.00  0.00     0.025 A 
ATOM     23  O9  UNK d          25.089  33.669  27.450  0.00  0.00    -0.273 OA
ATOM     24  C7  UNK d          24.671  33.351  27.758  0.00  0.00     0.303 A 
ATOM     25  O17 UNK d          24.328  33.437  27.390  0.00  0.00    -0.259 OA
ENDBRANCH   1  14
BRANCH   1  26
ATOM     26  C12 UNK d          24.028  33.072  28.997  0.00  0.00     0.003 A 
ATOM     27  C15 UNK d          23.549  33.384  28.803  0.00  0.00     0.026 A 
ATOM     28  C16 UNK d          23.195  33.665  29.211  0.00  0.00     0.119 A 
ATOM     29  O20 UNK d          22.688  34.008  29.142  0.00  0.00    -0.300 OA
ATOM     30  C19 UNK d          23.319  33.633  29.804  0.00  0.00     0.119 A 
ATOM     31  C22 UNK d          22.506  34.183  29.695  0.00  0.00     0.304 A 
ATOM     32  O21 UNK d          22.894  33.953  30.107  0.00  0.00    -0.300 OA
ATOM     33  C26 UNK d          23.804  33.316  29.998  0.00  0.00     0.026 A 
ATOM     34  C23 UNK d          24.160  33.035  29.593  0.00  0.00     0.002 A 
ENDBRANCH   1  26
TORSDOF 3
ENDMDL
MODEL 5
REMARK VINA RESULT:      -4.0      0.589      3.150
REMARK  3 active torsions:
REMARK  status: ('A' for Active; 'I' for Inactive)
REMARK    1  A    between atoms: C1_1  and  C5_5 
REMARK    2  A    between atoms: C2_2  and  C5_5 
REMARK    3  A    between atoms: C5_5  and  C12_12 
ROOT
ATOM      1  C5  UNK d          24.384  32.688  28.362  0.00  0.00     0.017 C 
ENDROOT
BRANCH   1   2
ATOM      2  C1  UNK d          24.196  32.167  28.114  0.00  0.00     0.103 A 
ATOM      3  C3  UNK d          24.398  31.630  28.333  0.00  0.00     0.203 A 
ATOM      4  C10 UNK d          24.210  31.117  28.086  0.00  0.00     0.062 A 
ATOM      5  O25 UNK d          24.783  31.623  28.793  0.00  0.00    -0.286 OA
ATOM      6  C28 UNK d          24.413  30.589  28.305  0.00  0.00     0.005 A 
ATOM      7  C13 UNK d          23.820  31.124  27.620  0.00  0.00     0.106 A 
ATOM      8  C31 UNK d          24.225  30.068  28.058  0.00  0.00     0.000 A 
ATOM      9  C33 UNK d          23.840  30.075  27.597  0.00  0.00     0.002 A 
ATOM     10  C30 UNK d          23.635  30.603  27.375  0.00  0.00     0.025 A 
ATOM     11  O8  UNK d          23.621  31.645  27.404  0.00  0.00    -0.273 OA
ATOM     12  C6  UNK d          23.806  32.174  27.648  0.00  0.00     0.303 A 
ATOM     13  O18 UNK d          23.624  32.589  27.448  0.00  0.00    -0.259 OA
ENDBRANCH   1   2
BRANCH   1  14
ATOM     14  C2  UNK d          24.110  32.907  28.854  0.00  0.00     0.103 A 
ATOM     15  C4  UNK d          23.634  33.283  28.802  0.00  0.00     0.203 A 
ATOM     16  C11 UNK d          23.360  33.502  29.294  0.00  0.00     0.062 A 
ATOM     17  O24 UNK d          23.435  33.438  28.244  0.00  0.00    -0.286 OA
ATOM     18  C27 UNK d          22.887  33.876  29.241  0.00  0.00     0.005 A 
ATOM     19  C14 UNK d          23.559  33.347  29.843  0.00  0.00     0.106 A 
ATOM     20  C32 UNK d          22.612  34.095  29.733  0.00  0.00     0.000 A 
ATOM     21  C34 UNK d          22.812  33.940  30.282  0.00  0.00     0.002 A 
ATOM     22  C29 UNK d          23.287  33.565  30.342  0.00  0.00     0.025 A 
ATOM     23  O9  UNK d          24.037  32.969  29.902  0.00  0.00    -0.273 OA
ATOM     24  C7  UNK d          24.309  32.752  29.402  0.00  0.00     0.303 A 
ATOM     25  O17 UNK d          24.640  32.492  29.691  0.00  0.00    -0.259 OA
ENDBRANCH   1  14
BRANCH   1  26
ATOM     26  C12 UNK d          24.854  32.994  28.113  0.00  0.00     0.003 A 
ATOM     27  C15 UNK d          25.407  32.939  28.351  0.00  0.00     0.026 A 
ATOM     28  C16 UNK d          25.867  33.246  28.099  0.00  0.00     0.119 A 
ATOM     29  O20 UNK d          26.466  33.274  28.246  0.00  0.00    -0.300 OA
ATOM     30  C19 UNK d          25.777  33.602  27.617  0.00  0.00     0.119 A 
ATOM     31  C22 UNK d          26.736  33.648  27.850  0.00  0.00     0.304 A 
ATOM     32  O21 UNK d          26.313  33.853  27.459  0.00  0.00    -0.300 OA
ATOM     33  C26 UNK d          25.218  33.656  27.378  0.00  0.00     0.026 A 
ATOM     34  C23 UNK d          24.755  33.351  27.627  0.00  0.00     0.002 A 
ENDBRANCH   1  26
TORSDOF 3
ENDMDL
MODEL 6
REMARK VINA RESULT:      -4.0      0.599      3.076
REMARK  3 active torsions:
REMARK  status: ('A' for Active; 'I' for Inactive)
REMARK    1  A    between atoms: C1_1  and  C5_5 
REMARK    2  A    between atoms: C2_2  and  C5_5 
REMARK    3  A    between atoms: C5_5  and  C12_12 
ROOT
ATOM      1  C5  UNK d          24.353  32.618  28.463  0.00  0.00     0.017 C 
ENDROOT
BRANCH   1   2
ATOM      2  C1  UNK d          23.968  32.949  28.794  0.00  0.00     0.103 A 
ATOM      3  C3  UNK d          23.936  32.871  29.402  0.00  0.00     0.203 A 
ATOM      4  C10 UNK d          23.554  33.201  29.726  0.00  0.00     0.062 A 
ATOM      5  O25 UNK d          24.288  32.464  29.668  0.00  0.00    -0.286 OA
ATOM      6  C28 UNK d          23.526  33.120  30.327  0.00  0.00     0.005 A 
ATOM      7  C13 UNK d          23.198  33.613  29.457  0.00  0.00     0.106 A 
ATOM      8  C31 UNK d          23.141  33.452  30.658  0.00  0.00     0.000 A 
ATOM      9  C33 UNK d          22.789  33.859  30.392  0.00  0.00     0.002 A 
ATOM     10  C30 UNK d          22.815  33.942  29.790  0.00  0.00     0.025 A 
ATOM     11  O8  UNK d          23.225  33.693  28.865  0.00  0.00    -0.273 OA
ATOM     12  C6  UNK d          23.611  33.362  28.525  0.00  0.00     0.303 A 
ATOM     13  O18 UNK d          23.612  33.450  28.037  0.00  0.00    -0.259 OA
ENDBRANCH   1   2
BRANCH   1  14
ATOM     14  C2  UNK d          24.929  32.790  28.403  0.00  0.00     0.103 A 
ATOM     15  C4  UNK d          25.098  33.156  27.948  0.00  0.00     0.203 A 
ATOM     16  C11 UNK d          25.675  33.328  27.888  0.00  0.00     0.062 A 
ATOM     17  O24 UNK d          24.676  33.349  27.547  0.00  0.00    -0.286 OA
ATOM     18  C27 UNK d          25.841  33.692  27.435  0.00  0.00     0.005 A 
ATOM     19  C14 UNK d          26.088  33.136  28.285  0.00  0.00     0.106 A 
ATOM     20  C32 UNK d          26.417  33.864  27.375  0.00  0.00     0.000 A 
ATOM     21  C34 UNK d          26.830  33.672  27.772  0.00  0.00     0.002 A 
ATOM     22  C29 UNK d          26.670  33.306  28.230  0.00  0.00     0.025 A 
ATOM     23  O9  UNK d          25.924  32.767  28.745  0.00  0.00    -0.273 OA
ATOM     24  C7  UNK d          25.342  32.597  28.800  0.00  0.00     0.303 A 
ATOM     25  O17 UNK d          25.456  32.324  29.215  0.00  0.00    -0.259 OA
ENDBRANCH   1  14
BRANCH   1  26
ATOM     26  C12 UNK d          24.158  32.106  28.187  0.00  0.00     0.003 A 
ATOM     27  C15 UNK d          24.258  31.569  28.447  0.00  0.00     0.026 A 
ATOM     28  C16 UNK d          24.062  31.066  28.167  0.00  0.00     0.119 A 
ATOM     29  O20 UNK d          24.100  30.471  28.326  0.00  0.00    -0.300 OA
ATOM     30  C19 UNK d          23.771  31.098  27.636  0.00  0.00     0.119 A 
ATOM     31  C22 UNK d          23.832  30.145  27.889  0.00  0.00     0.304 A 
ATOM     32  O21 UNK d          23.627  30.529  27.460  0.00  0.00    -0.300 OA
ATOM     33  C26 UNK d          23.671  31.641  27.375  0.00  0.00     0.026 A 
ATOM     34  C23 UNK d          23.865  32.146  27.652  0.00  0.00     0.002 A 
ENDBRANCH   1  26
TORSDOF 3
ENDMDL
MODEL 7
REMARK VINA RESULT:      -3.8      1.521      3.602
REMARK  3 active torsions:
REMARK  status: ('A' for Active; 'I' for Inactive)
REMARK    1  A    between atoms: C1_1  and  C5_5 
REMARK    2  A    between atoms: C2_2  and  C5_5 
REMARK    3  A    between atoms: C5_5  and  C12_12 
ROOT
ATOM      1  C5  UNK d          24.320  31.198  28.421  0.00  0.00     0.017 C 
ENDROOT
BRANCH   1   2
ATOM      2  C1  UNK d          23.935  30.730  28.420  0.00  0.00     0.103 A 
ATOM      3  C3  UNK d          23.685  30.536  27.894  0.00  0.00     0.203 A 
ATOM      4  C10 UNK d          23.304  30.072  27.898  0.00  0.00     0.062 A 
ATOM      5  O25 UNK d          23.823  30.813  27.380  0.00  0.00    -0.286 OA
ATOM      6  C28 UNK d          23.059  29.884  27.376  0.00  0.00     0.005 A 
ATOM      7  C13 UNK d          23.165  29.792  28.419  0.00  0.00     0.106 A 
ATOM      8  C31 UNK d          22.674  29.415  27.375  0.00  0.00     0.000 A 
ATOM      9  C33 UNK d          22.536  29.139  27.889  0.00  0.00     0.002 A 
ATOM     10  C30 UNK d          22.781  29.325  28.415  0.00  0.00     0.025 A 
ATOM     11  O8  UNK d          23.406  29.977  28.933  0.00  0.00    -0.273 OA
ATOM     12  C6  UNK d          23.795  30.449  28.941  0.00  0.00     0.303 A 
ATOM     13  O18 UNK d          23.979  30.580  29.382  0.00  0.00    -0.259 OA
ENDBRANCH   1   2
BRANCH   1  14
ATOM     14  C2  UNK d          24.110  31.765  28.449  0.00  0.00     0.103 A 
ATOM     15  C4  UNK d          24.022  32.037  28.986  0.00  0.00     0.203 A 
ATOM     16  C11 UNK d          23.812  32.603  29.014  0.00  0.00     0.062 A 
ATOM     17  O24 UNK d          24.150  31.730  29.501  0.00  0.00    -0.286 OA
ATOM     18  C27 UNK d          23.725  32.872  29.548  0.00  0.00     0.005 A 
ATOM     19  C14 UNK d          23.687  32.902  28.504  0.00  0.00     0.106 A 
ATOM     20  C32 UNK d          23.515  33.439  29.576  0.00  0.00     0.000 A 
ATOM     21  C34 UNK d          23.390  33.738  29.067  0.00  0.00     0.002 A 
ATOM     22  C29 UNK d          23.475  33.472  28.525  0.00  0.00     0.025 A 
ATOM     23  O9  UNK d          23.773  32.634  27.961  0.00  0.00    -0.273 OA
ATOM     24  C7  UNK d          23.985  32.064  27.939  0.00  0.00     0.303 A 
ATOM     25  O17 UNK d          23.969  32.072  27.429  0.00  0.00    -0.259 OA
ENDBRANCH   1  14
BRANCH   1  26
ATOM     26  C12 UNK d          24.924  31.100  28.393  0.00  0.00     0.003 A 
ATOM     27  C15 UNK d          25.212  31.149  27.864  0.00  0.00     0.026 A 
ATOM     28  C16 UNK d          25.812  31.049  27.844  0.00  0.00     0.119 A 
ATOM     29  O20 UNK d          26.212  31.068  27.375  0.00  0.00    -0.300 OA
ATOM     30  C19 UNK d          26.119  30.903  28.346  0.00  0.00     0.119 A 
ATOM     31  C22 UNK d          26.762  30.932  27.596  0.00  0.00     0.304 A 
ATOM     32  O21 UNK d          26.709  30.829  28.196  0.00  0.00    -0.300 OA
ATOM     33  C26 UNK d          25.827  30.853  28.879  0.00  0.00     0.026 A 
ATOM     34  C23 UNK d          25.228  30.952  28.903  0.00  0.00     0.002 A 
ENDBRANCH   1  26
TORSDOF 3
ENDMDL
MODEL 8
REMARK VINA RESULT:      -3.8      1.457      3.709
REMARK  3 active torsions:
REMARK  status: ('A' for Active; 'I' for Inactive)
REMARK    1  A    between atoms: C1_1  and  C5_5 
REMARK    2  A    between atoms: C2_2  and  C5_5 
REMARK    3  A    between atoms: C5_5  and  C12_12 
ROOT
ATOM      1  C5  UNK d          25.884  34.120  28.589  0.00  0.00     0.017 C 
ENDROOT
BRANCH   1   2
ATOM      2  C1  UNK d          25.352  33.842  28.497  0.00  0.00     0.103 A 
ATOM      3  C3  UNK d          25.283  33.457  28.024  0.00  0.00     0.203 A 
ATOM      4  C10 UNK d          24.756  33.184  27.937  0.00  0.00     0.062 A 
ATOM      5  O25 UNK d          25.743  33.357  27.652  0.00  0.00    -0.286 OA
ATOM      6  C28 UNK d          24.691  32.804  27.468  0.00  0.00     0.005 A 
ATOM      7  C13 UNK d          24.290  33.285  28.314  0.00  0.00     0.106 A 
ATOM      8  C31 UNK d          24.160  32.526  27.376  0.00  0.00     0.000 A 
ATOM      9  C33 UNK d          23.700  32.625  27.749  0.00  0.00     0.002 A 
ATOM     10  C30 UNK d          23.762  33.006  28.220  0.00  0.00     0.025 A 
ATOM     11  O8  UNK d          24.354  33.658  28.776  0.00  0.00    -0.273 OA
ATOM     12  C6  UNK d          24.886  33.943  28.875  0.00  0.00     0.303 A 
ATOM     13  O18 UNK d          24.910  34.246  29.265  0.00  0.00    -0.259 OA
ENDBRANCH   1   2
BRANCH   1  14
ATOM     14  C2  UNK d          26.010  34.637  28.301  0.00  0.00     0.103 A 
ATOM     15  C4  UNK d          25.872  35.173  28.552  0.00  0.00     0.203 A 
ATOM     16  C11 UNK d          25.998  35.690  28.264  0.00  0.00     0.062 A 
ATOM     17  O24 UNK d          25.602  35.186  29.102  0.00  0.00    -0.286 OA
ATOM     18  C27 UNK d          25.860  36.223  28.515  0.00  0.00     0.005 A 
ATOM     19  C14 UNK d          26.263  35.674  27.722  0.00  0.00     0.106 A 
ATOM     20  C32 UNK d          25.986  36.739  28.227  0.00  0.00     0.000 A 
ATOM     21  C34 UNK d          26.252  36.723  27.685  0.00  0.00     0.002 A 
ATOM     22  C29 UNK d          26.393  36.190  27.427  0.00  0.00     0.025 A 
ATOM     23  O9  UNK d          26.405  35.137  27.464  0.00  0.00    -0.273 OA
ATOM     24  C7  UNK d          26.275  34.620  27.759  0.00  0.00     0.303 A 
ATOM     25  O17 UNK d          26.471  34.347  27.375  0.00  0.00    -0.259 OA
ENDBRANCH   1  14
BRANCH   1  26
ATOM     26  C12 UNK d          26.295  33.878  28.974  0.00  0.00     0.003 A 
ATOM     27  C15 UNK d          26.758  33.557  28.755  0.00  0.00     0.026 A 
ATOM     28  C16 UNK d          27.162  33.320  29.144  0.00  0.00     0.119 A 
ATOM     29  O20 UNK d          27.667  32.981  29.048  0.00  0.00    -0.300 OA
ATOM     30  C19 UNK d          27.104  33.403  29.742  0.00  0.00     0.119 A 
ATOM     31  C22 UNK d          27.914  32.859  29.590  0.00  0.00     0.304 A 
ATOM     32  O21 UNK d          27.568  33.118  30.022  0.00  0.00    -0.300 OA
ATOM     33  C26 UNK d          26.636  33.728  29.961  0.00  0.00     0.026 A 
ATOM     34  C23 UNK d          26.230  33.966  29.576  0.00  0.00     0.002 A 
ENDBRANCH   1  26
TORSDOF 3
ENDMDL
MODEL 9
REMARK VINA RESULT:      -3.7      1.500      2.842
REMARK  3 active torsions:
REMARK  status: ('A' for Active; 'I' for Inactive)
REMARK    1  A    between atoms: C1_1  and  C5_5 
REMARK    2  A    between atoms: C2_2  and  C5_5 
REMARK    3  A    between atoms: C5_5  and  C12_12 
ROOT
ATOM      1  C5  UNK d          25.929  34.253  28.584  0.00  0.00     0.017 C 
ENDROOT
BRANCH   1   2
ATOM      2  C1  UNK d          25.920  34.853  28.493  0.00  0.00     0.103 A 
ATOM      3  C3  UNK d          26.225  35.098  28.021  0.00  0.00     0.203 A 
ATOM      4  C10 UNK d          26.215  35.691  27.934  0.00  0.00     0.062 A 
ATOM      5  O25 UNK d          26.533  34.742  27.649  0.00  0.00    -0.286 OA
ATOM      6  C28 UNK d          26.517  35.930  27.466  0.00  0.00     0.005 A 
ATOM      7  C13 UNK d          25.903  36.052  28.312  0.00  0.00     0.106 A 
ATOM      8  C31 UNK d          26.509  36.530  27.375  0.00  0.00     0.000 A 
ATOM      9  C33 UNK d          26.201  36.886  27.748  0.00  0.00     0.002 A 
ATOM     10  C30 UNK d          25.896  36.649  28.219  0.00  0.00     0.025 A 
ATOM     11  O8  UNK d          25.605  35.817  28.773  0.00  0.00    -0.273 OA
ATOM     12  C6  UNK d          25.609  35.213  28.871  0.00  0.00     0.303 A 
ATOM     13  O18 UNK d          25.353  35.047  29.261  0.00  0.00    -0.259 OA
ENDBRANCH   1   2
BRANCH   1  14
ATOM     14  C2  UNK d          25.539  33.895  28.292  0.00  0.00     0.103 A 
ATOM     15  C4  UNK d          24.997  33.764  28.534  0.00  0.00     0.203 A 
ATOM     16  C11 UNK d          24.606  33.406  28.242  0.00  0.00     0.062 A 
ATOM     17  O24 UNK d          24.849  33.998  29.081  0.00  0.00    -0.286 OA
ATOM     18  C27 UNK d          24.068  33.276  28.485  0.00  0.00     0.005 A 
ATOM     19  C14 UNK d          24.755  33.177  27.704  0.00  0.00     0.106 A 
ATOM     20  C32 UNK d          23.678  32.919  28.193  0.00  0.00     0.000 A 
ATOM     21  C34 UNK d          23.827  32.690  27.654  0.00  0.00     0.002 A 
ATOM     22  C29 UNK d          24.367  32.817  27.404  0.00  0.00     0.025 A 
ATOM     23  O9  UNK d          25.299  33.306  27.454  0.00  0.00    -0.273 OA
ATOM     24  C7  UNK d          25.688  33.666  27.753  0.00  0.00     0.303 A 
ATOM     25  O17 UNK d          26.027  33.622  27.375  0.00  0.00    -0.259 OA
ENDBRANCH   1  14
BRANCH   1  26
ATOM     26  C12 UNK d          26.334  34.007  28.973  0.00  0.00     0.003 A 
ATOM     27  C15 UNK d          26.842  33.758  28.760  0.00  0.00     0.026 A 
ATOM     28  C16 UNK d          27.239  33.516  29.151  0.00  0.00     0.119 A 
ATOM     29  O20 UNK d          27.783  33.239  29.061  0.00  0.00    -0.300 OA
ATOM     30  C19 UNK d          27.130  33.522  29.748  0.00  0.00     0.119 A 
ATOM     31  C22 UNK d          28.001  33.078  29.605  0.00  0.00     0.304 A 
ATOM     32  O21 UNK d          27.600  33.251  30.033  0.00  0.00    -0.300 OA
ATOM     33  C26 UNK d          26.617  33.773  29.962  0.00  0.00     0.026 A 
ATOM     34  C23 UNK d          26.218  34.016  29.574  0.00  0.00     0.002 A 
ENDBRANCH   1  26
TORSDOF 3
ENDMDL
