MODEL 1
REMARK VINA RESULT:      -1.5      0.000      0.000
REMARK  4 active torsions:
REMARK  status: ('A' for Active; 'I' for Inactive)
REMARK    1  A    between atoms: C2_2  and  C4_4 
REMARK    2  A    between atoms: C4_4  and  C6_6 
REMARK    3  A    between atoms: C6_6  and  C7_7 
REMARK    4  A    between atoms: C7_7  and  C9_9 
ROOT
ATOM      1  C7  UNK d          23.964  32.808  28.781  0.00  0.00     0.104 C 
ATOM      2  O8  UNK d          23.351  32.466  30.106  0.00  0.00    -0.195 OA
ENDROOT
BRANCH   1   3
ATOM      3  C6  UNK d          23.709  31.935  27.588  0.00  0.00     0.098 C 
BRANCH   3   4
ATOM      4  C4  UNK d          23.937  30.455  27.679  0.00  0.00     0.245 C 
ATOM      5  O5  UNK d          22.781  29.509  27.541  0.00  0.00    -0.211 OA
BRANCH   4   6
ATOM      6  C2  UNK d          25.320  29.922  27.909  0.00  0.00     0.218 C 
ATOM      7  O1  UNK d          26.509  30.669  27.383  0.00  0.00    -0.645 OA
ATOM      8  O3  UNK d          25.513  28.641  28.665  0.00  0.00    -0.645 OA
ENDBRANCH   4   6
ENDBRANCH   3   4
ENDBRANCH   1   3
BRANCH   1   9
ATOM      9  C9  UNK d          24.833  34.024  28.648  0.00  0.00    -0.023 A 
ATOM     10  C10 UNK d          25.802  34.133  27.509  0.00  0.00     0.024 A 
ATOM     11  C11 UNK d          26.670  35.349  27.376  0.00  0.00     0.004 A 
ATOM     12  C12 UNK d          26.570  36.456  28.383  0.00  0.00     0.001 A 
ATOM     13  C13 UNK d          25.600  36.347  29.523  0.00  0.00     0.004 A 
ATOM     14  C14 UNK d          24.732  35.131  29.655  0.00  0.00     0.024 A 
ENDBRANCH   1   9
TORSDOF 4
ENDMDL
MODEL 2
REMARK VINA RESULT:      -1.4      1.500      2.296
REMARK  4 active torsions:
REMARK  status: ('A' for Active; 'I' for Inactive)
REMARK    1  A    between atoms: C2_2  and  C4_4 
REMARK    2  A    between atoms: C4_4  and  C6_6 
REMARK    3  A    between atoms: C6_6  and  C7_7 
REMARK    4  A    between atoms: C7_7  and  C9_9 
ROOT
ATOM      1  C7  UNK d          24.223  33.167  28.240  0.00  0.00     0.104 C 
ATOM      2  O8  UNK d          23.069  33.776  28.979  0.00  0.00    -0.195 OA
ENDROOT
BRANCH   1   3
ATOM      3  C6  UNK d          24.010  31.953  27.385  0.00  0.00     0.098 C 
BRANCH   3   4
ATOM      4  C4  UNK d          24.308  30.589  27.933  0.00  0.00     0.245 C 
ATOM      5  O5  UNK d          25.609  29.917  27.605  0.00  0.00    -0.211 OA
BRANCH   4   6
ATOM      6  C2  UNK d          23.306  29.896  28.808  0.00  0.00     0.218 C 
ATOM      7  O1  UNK d          22.519  28.736  28.274  0.00  0.00    -0.645 OA
ATOM      8  O3  UNK d          23.092  30.362  30.217  0.00  0.00    -0.645 OA
ENDBRANCH   4   6
ENDBRANCH   3   4
ENDBRANCH   1   3
BRANCH   1   9
ATOM      9  C9  UNK d          25.591  33.773  28.354  0.00  0.00    -0.023 A 
ATOM     10  C10 UNK d          26.010  34.861  27.411  0.00  0.00     0.024 A 
ATOM     11  C11 UNK d          27.378  35.467  27.526  0.00  0.00     0.004 A 
ATOM     12  C12 UNK d          28.326  34.983  28.583  0.00  0.00     0.001 A 
ATOM     13  C13 UNK d          27.906  33.895  29.526  0.00  0.00     0.004 A 
ATOM     14  C14 UNK d          26.539  33.289  29.411  0.00  0.00     0.024 A 
ENDBRANCH   1   9
TORSDOF 4
ENDMDL
MODEL 3
REMARK VINA RESULT:      -1.4      2.406      5.291
REMARK  4 active torsions:
REMARK  status: ('A' for Active; 'I' for Inactive)
REMARK    1  A    between atoms: C2_2  and  C4_4 
REMARK    2  A    between atoms: C4_4  and  C6_6 
REMARK    3  A    between atoms: C6_6  and  C7_7 
REMARK    4  A    between atoms: C7_7  and  C9_9 
ROOT
ATOM      1  C7  UNK d          24.453  32.876  28.025  0.00  0.00     0.104 C 
ATOM      2  O8  UNK d          23.258  33.380  28.779  0.00  0.00    -0.195 OA
ENDROOT
BRANCH   1   3
ATOM      3  C6  UNK d          25.394  33.847  27.375  0.00  0.00     0.098 C 
BRANCH   3   4
ATOM      4  C4  UNK d          26.097  34.880  28.205  0.00  0.00     0.245 C 
ATOM      5  O5  UNK d          26.337  36.253  27.649  0.00  0.00    -0.211 OA
BRANCH   4   6
ATOM      6  C2  UNK d          26.561  34.541  29.590  0.00  0.00     0.218 C 
ATOM      7  O1  UNK d          25.806  35.054  30.781  0.00  0.00    -0.645 OA
ATOM      8  O3  UNK d          27.779  33.688  29.786  0.00  0.00    -0.645 OA
ENDBRANCH   4   6
ENDBRANCH   3   4
ENDBRANCH   1   3
BRANCH   1   9
ATOM      9  C9  UNK d          24.707  31.402  27.922  0.00  0.00    -0.023 A 
ATOM     10  C10 UNK d          26.066  30.851  28.238  0.00  0.00     0.024 A 
ATOM     11  C11 UNK d          26.321  29.377  28.134  0.00  0.00     0.004 A 
ATOM     12  C12 UNK d          25.216  28.453  27.714  0.00  0.00     0.001 A 
ATOM     13  C13 UNK d          23.857  29.003  27.399  0.00  0.00     0.004 A 
ATOM     14  C14 UNK d          23.603  30.478  27.502  0.00  0.00     0.024 A 
ENDBRANCH   1   9
TORSDOF 4
ENDMDL
MODEL 4
REMARK VINA RESULT:      -1.4      2.895      5.309
REMARK  4 active torsions:
REMARK  status: ('A' for Active; 'I' for Inactive)
REMARK    1  A    between atoms: C2_2  and  C4_4 
REMARK    2  A    between atoms: C4_4  and  C6_6 
REMARK    3  A    between atoms: C6_6  and  C7_7 
REMARK    4  A    between atoms: C7_7  and  C9_9 
ROOT
ATOM      1  C7  UNK d          23.951  33.522  30.578  0.00  0.00     0.104 C 
ATOM      2  O8  UNK d          24.391  33.358  32.003  0.00  0.00    -0.195 OA
ENDROOT
BRANCH   1   3
ATOM      3  C6  UNK d          23.734  34.895  30.014  0.00  0.00     0.098 C 
BRANCH   3   4
ATOM      4  C4  UNK d          24.910  35.753  29.655  0.00  0.00     0.245 C 
ATOM      5  O5  UNK d          24.730  37.230  29.463  0.00  0.00    -0.211 OA
BRANCH   4   6
ATOM      6  C2  UNK d          26.267  35.135  29.489  0.00  0.00     0.218 C 
ATOM      7  O1  UNK d          26.696  34.617  28.149  0.00  0.00    -0.645 OA
ATOM      8  O3  UNK d          27.194  35.035  30.664  0.00  0.00    -0.645 OA
ENDBRANCH   4   6
ENDBRANCH   3   4
ENDBRANCH   1   3
BRANCH   1   9
ATOM      9  C9  UNK d          23.728  32.313  29.718  0.00  0.00    -0.023 A 
ATOM     10  C10 UNK d          23.296  31.019  30.341  0.00  0.00     0.024 A 
ATOM     11  C11 UNK d          23.073  29.811  29.481  0.00  0.00     0.004 A 
ATOM     12  C12 UNK d          23.283  29.896  27.998  0.00  0.00     0.001 A 
ATOM     13  C13 UNK d          23.715  31.191  27.375  0.00  0.00     0.004 A 
ATOM     14  C14 UNK d          23.938  32.399  28.235  0.00  0.00     0.024 A 
ENDBRANCH   1   9
TORSDOF 4
ENDMDL
MODEL 5
REMARK VINA RESULT:      -1.4      1.249      2.079
REMARK  4 active torsions:
REMARK  status: ('A' for Active; 'I' for Inactive)
REMARK    1  A    between atoms: C2_2  and  C4_4 
REMARK    2  A    between atoms: C4_4  and  C6_6 
REMARK    3  A    between atoms: C6_6  and  C7_7 
REMARK    4  A    between atoms: C7_7  and  C9_9 
ROOT
ATOM      1  C7  UNK d          25.368  32.574  28.142  0.00  0.00     0.104 C 
ATOM      2  O8  UNK d          26.542  31.660  28.332  0.00  0.00    -0.195 OA
ENDROOT
BRANCH   1   3
ATOM      3  C6  UNK d          24.032  32.008  27.761  0.00  0.00     0.098 C 
BRANCH   3   4
ATOM      4  C4  UNK d          23.598  30.678  28.303  0.00  0.00     0.245 C 
ATOM      5  O5  UNK d          23.411  29.515  27.375  0.00  0.00    -0.211 OA
BRANCH   4   6
ATOM      6  C2  UNK d          23.351  30.512  29.774  0.00  0.00     0.218 C 
ATOM      7  O1  UNK d          23.017  31.706  30.617  0.00  0.00    -0.645 OA
ATOM      8  O3  UNK d          23.438  29.152  30.400  0.00  0.00    -0.645 OA
ENDBRANCH   4   6
ENDBRANCH   3   4
ENDBRANCH   1   3
BRANCH   1   9
ATOM      9  C9  UNK d          25.529  34.053  28.334  0.00  0.00    -0.023 A 
ATOM     10  C10 UNK d          26.366  34.846  27.375  0.00  0.00     0.024 A 
ATOM     11  C11 UNK d          26.527  36.325  27.566  0.00  0.00     0.004 A 
ATOM     12  C12 UNK d          25.851  37.011  28.716  0.00  0.00     0.001 A 
ATOM     13  C13 UNK d          25.014  36.217  29.675  0.00  0.00     0.004 A 
ATOM     14  C14 UNK d          24.852  34.738  29.484  0.00  0.00     0.024 A 
ENDBRANCH   1   9
TORSDOF 4
ENDMDL
MODEL 6
REMARK VINA RESULT:      -1.3      2.146      5.670
REMARK  4 active torsions:
REMARK  status: ('A' for Active; 'I' for Inactive)
REMARK    1  A    between atoms: C2_2  and  C4_4 
REMARK    2  A    between atoms: C4_4  and  C6_6 
REMARK    3  A    between atoms: C6_6  and  C7_7 
REMARK    4  A    between atoms: C7_7  and  C9_9 
ROOT
ATOM      1  C7  UNK d          25.789  32.196  27.562  0.00  0.00     0.104 C 
ATOM      2  O8  UNK d          27.281  32.246  27.410  0.00  0.00    -0.195 OA
ENDROOT
BRANCH   1   3
ATOM      3  C6  UNK d          25.000  33.470  27.632  0.00  0.00     0.098 C 
BRANCH   3   4
ATOM      4  C4  UNK d          25.145  34.378  28.817  0.00  0.00     0.245 C 
ATOM      5  O5  UNK d          26.206  35.438  28.824  0.00  0.00    -0.211 OA
BRANCH   4   6
ATOM      6  C2  UNK d          24.228  34.227  29.994  0.00  0.00     0.218 C 
ATOM      7  O1  UNK d          23.215  33.121  30.020  0.00  0.00    -0.645 OA
ATOM      8  O3  UNK d          24.324  35.183  31.147  0.00  0.00    -0.645 OA
ENDBRANCH   4   6
ENDBRANCH   3   4
ENDBRANCH   1   3
BRANCH   1   9
ATOM      9  C9  UNK d          25.088  30.873  27.646  0.00  0.00    -0.023 A 
ATOM     10  C10 UNK d          23.615  30.787  27.375  0.00  0.00     0.024 A 
ATOM     11  C11 UNK d          22.914  29.463  27.458  0.00  0.00     0.004 A 
ATOM     12  C12 UNK d          23.685  28.227  27.812  0.00  0.00     0.001 A 
ATOM     13  C13 UNK d          25.158  28.313  28.083  0.00  0.00     0.004 A 
ATOM     14  C14 UNK d          25.859  29.636  27.999  0.00  0.00     0.024 A 
ENDBRANCH   1   9
TORSDOF 4
ENDMDL
MODEL 7
REMARK VINA RESULT:      -1.3      1.775      2.905
REMARK  4 active torsions:
REMARK  status: ('A' for Active; 'I' for Inactive)
REMARK    1  A    between atoms: C2_2  and  C4_4 
REMARK    2  A    between atoms: C4_4  and  C6_6 
REMARK    3  A    between atoms: C6_6  and  C7_7 
REMARK    4  A    between atoms: C7_7  and  C9_9 
ROOT
ATOM      1  C7  UNK d          25.020  33.602  28.794  0.00  0.00     0.104 C 
ATOM      2  O8  UNK d          26.468  33.253  28.970  0.00  0.00    -0.195 OA
ENDROOT
BRANCH   1   3
ATOM      3  C6  UNK d          24.128  32.713  27.979  0.00  0.00     0.098 C 
BRANCH   3   4
ATOM      4  C4  UNK d          23.822  31.323  28.451  0.00  0.00     0.245 C 
ATOM      5  O5  UNK d          23.335  30.291  27.477  0.00  0.00    -0.211 OA
BRANCH   4   6
ATOM      6  C2  UNK d          24.004  30.964  29.896  0.00  0.00     0.218 C 
ATOM      7  O1  UNK d          22.928  31.288  30.890  0.00  0.00    -0.645 OA
ATOM      8  O3  UNK d          25.261  30.281  30.347  0.00  0.00    -0.645 OA
ENDBRANCH   4   6
ENDBRANCH   3   4
ENDBRANCH   1   3
BRANCH   1   9
ATOM      9  C9  UNK d          24.464  34.841  29.432  0.00  0.00    -0.023 A 
ATOM     10  C10 UNK d          23.073  34.836  29.992  0.00  0.00     0.024 A 
ATOM     11  C11 UNK d          22.517  36.074  30.630  0.00  0.00     0.004 A 
ATOM     12  C12 UNK d          23.352  37.317  30.709  0.00  0.00     0.001 A 
ATOM     13  C13 UNK d          24.744  37.322  30.150  0.00  0.00     0.004 A 
ATOM     14  C14 UNK d          25.300  36.084  29.511  0.00  0.00     0.024 A 
ENDBRANCH   1   9
TORSDOF 4
ENDMDL
MODEL 8
REMARK VINA RESULT:      -1.3      2.770      4.771
REMARK  4 active torsions:
REMARK  status: ('A' for Active; 'I' for Inactive)
REMARK    1  A    between atoms: C2_2  and  C4_4 
REMARK    2  A    between atoms: C4_4  and  C6_6 
REMARK    3  A    between atoms: C6_6  and  C7_7 
REMARK    4  A    between atoms: C7_7  and  C9_9 
ROOT
ATOM      1  C7  UNK d          26.042  35.671  28.757  0.00  0.00     0.104 C 
ATOM      2  O8  UNK d          25.282  36.960  28.862  0.00  0.00    -0.195 OA
ENDROOT
BRANCH   1   3
ATOM      3  C6  UNK d          27.540  35.688  28.688  0.00  0.00     0.098 C 
BRANCH   3   4
ATOM      4  C4  UNK d          28.327  34.508  29.178  0.00  0.00     0.245 C 
ATOM      5  O5  UNK d          28.533  34.303  30.649  0.00  0.00    -0.211 OA
BRANCH   4   6
ATOM      6  C2  UNK d          28.907  33.534  28.196  0.00  0.00     0.218 C 
ATOM      7  O1  UNK d          28.259  32.196  27.994  0.00  0.00    -0.645 OA
ATOM      8  O3  UNK d          30.136  33.897  27.416  0.00  0.00    -0.645 OA
ENDBRANCH   4   6
ENDBRANCH   3   4
ENDBRANCH   1   3
BRANCH   1   9
ATOM      9  C9  UNK d          25.304  34.366  28.721  0.00  0.00    -0.023 A 
ATOM     10  C10 UNK d          25.092  33.660  27.414  0.00  0.00     0.024 A 
ATOM     11  C11 UNK d          24.354  32.354  27.378  0.00  0.00     0.004 A 
ATOM     12  C12 UNK d          23.828  31.755  28.648  0.00  0.00     0.001 A 
ATOM     13  C13 UNK d          24.039  32.461  29.954  0.00  0.00     0.004 A 
ATOM     14  C14 UNK d          24.777  33.766  29.991  0.00  0.00     0.024 A 
ENDBRANCH   1   9
TORSDOF 4
ENDMDL
MODEL 9
REMARK VINA RESULT:      -1.3      2.921      5.415
REMARK  4 active torsions:
REMARK  status: ('A' for Active; 'I' for Inactive)
REMARK    1  A    between atoms: C2_2  and  C4_4 
REMARK    2  A    between atoms: C4_4  and  C6_6 
REMARK    3  A    between atoms: C6_6  and  C7_7 
REMARK    4  A    between atoms: C7_7  and  C9_9 
ROOT
ATOM      1  C7  UNK d          26.875  33.621  29.190  0.00  0.00     0.104 C 
ATOM      2  O8  UNK d          28.181  33.611  28.451  0.00  0.00    -0.195 OA
ENDROOT
BRANCH   1   3
ATOM      3  C6  UNK d          26.621  34.651  30.250  0.00  0.00     0.098 C 
BRANCH   3   4
ATOM      4  C4  UNK d          25.214  34.986  30.648  0.00  0.00     0.245 C 
ATOM      5  O5  UNK d          24.524  34.182  31.710  0.00  0.00    -0.211 OA
BRANCH   4   6
ATOM      6  C2  UNK d          24.497  36.124  29.985  0.00  0.00     0.218 C 
ATOM      7  O1  UNK d          25.256  37.084  29.117  0.00  0.00    -0.645 OA
ATOM      8  O3  UNK d          23.022  36.303  30.189  0.00  0.00    -0.645 OA
ENDBRANCH   4   6
ENDBRANCH   3   4
ENDBRANCH   1   3
BRANCH   1   9
ATOM      9  C9  UNK d          25.824  32.600  28.868  0.00  0.00    -0.023 A 
ATOM     10  C10 UNK d          24.896  32.819  27.710  0.00  0.00     0.024 A 
ATOM     11  C11 UNK d          23.844  31.799  27.388  0.00  0.00     0.004 A 
ATOM     12  C12 UNK d          23.722  30.559  28.224  0.00  0.00     0.001 A 
ATOM     13  C13 UNK d          24.650  30.340  29.382  0.00  0.00     0.004 A 
ATOM     14  C14 UNK d          25.701  31.361  29.704  0.00  0.00     0.024 A 
ENDBRANCH   1   9
TORSDOF 4
ENDMDL
