MODEL 1
REMARK VINA RESULT:      -2.6      0.000      0.000
REMARK  1 active torsions:
REMARK  status: ('A' for Active; 'I' for Inactive)
REMARK    1  A    between atoms: C1_1  and  C7_7 
ROOT
ATOM      1  C1  UNK d          24.805  32.770  28.010  0.00  0.00     0.102 A 
ATOM      2  C2  UNK d          25.570  32.841  27.709  0.00  0.00     0.203 A 
ATOM      3  C3  UNK d          24.403  33.430  28.297  0.00  0.00     0.303 A 
ATOM      4  O4  UNK d          24.782  34.165  28.277  0.00  0.00    -0.273 OA
ATOM      5  C5  UNK d          25.933  33.574  27.695  0.00  0.00     0.062 A 
ATOM      6  C6  UNK d          25.547  34.235  27.976  0.00  0.00     0.106 A 
ATOM      7  O8  UNK d          23.638  33.360  28.598  0.00  0.00    -0.259 OA
ATOM      8  O9  UNK d          25.964  32.172  27.423  0.00  0.00    -0.286 OA
ATOM      9  C10 UNK d          26.687  33.640  27.398  0.00  0.00     0.005 A 
ATOM     10  C11 UNK d          25.910  34.962  27.961  0.00  0.00     0.025 A 
ATOM     11  C14 UNK d          27.057  34.366  27.380  0.00  0.00     0.000 A 
ATOM     12  C15 UNK d          26.664  35.031  27.665  0.00  0.00     0.002 A 
ENDROOT
BRANCH   1  13
ATOM     13  C7  UNK d          24.438  32.032  28.024  0.00  0.00     0.008 A 
ATOM     14  C12 UNK d          24.516  31.547  28.694  0.00  0.00     0.000 A 
ATOM     15  C17 UNK d          24.152  30.812  28.710  0.00  0.00     0.000 A 
ATOM     16  C18 UNK d          23.706  30.549  28.059  0.00  0.00     0.000 A 
ATOM     17  C16 UNK d          23.634  31.036  27.397  0.00  0.00     0.000 A 
ATOM     18  C13 UNK d          24.000  31.777  27.380  0.00  0.00     0.000 A 
ENDBRANCH   1  13
TORSDOF 1
ENDMDL
MODEL 2
REMARK VINA RESULT:      -2.5      0.765      3.524
REMARK  1 active torsions:
REMARK  status: ('A' for Active; 'I' for Inactive)
REMARK    1  A    between atoms: C1_1  and  C7_7 
ROOT
ATOM      1  C1  UNK d          25.551  33.088  28.018  0.00  0.00     0.102 A 
ATOM      2  C2  UNK d          24.811  32.875  27.721  0.00  0.00     0.203 A 
ATOM      3  C3  UNK d          26.075  32.515  28.293  0.00  0.00     0.303 A 
ATOM      4  O4  UNK d          25.844  31.721  28.267  0.00  0.00    -0.273 OA
ATOM      5  C5  UNK d          24.596  32.085  27.701  0.00  0.00     0.062 A 
ATOM      6  C6  UNK d          25.104  31.508  27.971  0.00  0.00     0.106 A 
ATOM      7  O8  UNK d          26.815  32.728  28.589  0.00  0.00    -0.259 OA
ATOM      8  O9  UNK d          24.292  33.458  27.447  0.00  0.00    -0.286 OA
ATOM      9  C10 UNK d          23.865  31.879  27.409  0.00  0.00     0.005 A 
ATOM     10  C11 UNK d          24.888  30.725  27.949  0.00  0.00     0.025 A 
ATOM     11  C14 UNK d          23.641  31.095  27.384  0.00  0.00     0.000 A 
ATOM     12  C15 UNK d          24.158  30.515  27.657  0.00  0.00     0.002 A 
ENDROOT
BRANCH   1  13
ATOM     13  C7  UNK d          25.768  33.883  28.038  0.00  0.00     0.008 A 
ATOM     14  C12 UNK d          26.130  34.227  27.375  0.00  0.00     0.000 A 
ATOM     15  C17 UNK d          26.348  35.018  27.393  0.00  0.00     0.000 A 
ATOM     16  C18 UNK d          26.208  35.477  28.072  0.00  0.00     0.000 A 
ATOM     17  C16 UNK d          25.848  35.128  28.727  0.00  0.00     0.000 A 
ATOM     18  C13 UNK d          25.628  34.331  28.710  0.00  0.00     0.000 A 
ENDBRANCH   1  13
TORSDOF 1
ENDMDL
MODEL 3
REMARK VINA RESULT:      -2.5      1.591      3.643
REMARK  1 active torsions:
REMARK  status: ('A' for Active; 'I' for Inactive)
REMARK    1  A    between atoms: C1_1  and  C7_7 
ROOT
ATOM      1  C1  UNK d          24.068  32.569  28.608  0.00  0.00     0.102 A 
ATOM      2  C2  UNK d          23.897  31.873  29.018  0.00  0.00     0.203 A 
ATOM      3  C3  UNK d          24.092  32.577  27.785  0.00  0.00     0.303 A 
ATOM      4  O4  UNK d          23.941  31.874  27.376  0.00  0.00    -0.273 OA
ATOM      5  C5  UNK d          23.751  31.184  28.601  0.00  0.00     0.062 A 
ATOM      6  C6  UNK d          23.771  31.178  27.786  0.00  0.00     0.106 A 
ATOM      7  O8  UNK d          24.262  33.273  27.375  0.00  0.00    -0.259 OA
ATOM      8  O9  UNK d          23.876  31.876  29.845  0.00  0.00    -0.286 OA
ATOM      9  C10 UNK d          23.583  30.501  29.008  0.00  0.00     0.005 A 
ATOM     10  C11 UNK d          23.625  30.493  27.375  0.00  0.00     0.025 A 
ATOM     11  C14 UNK d          23.436  29.809  28.602  0.00  0.00     0.000 A 
ATOM     12  C15 UNK d          23.458  29.807  27.779  0.00  0.00     0.002 A 
ENDROOT
BRANCH   1  13
ATOM     13  C7  UNK d          24.215  33.263  29.028  0.00  0.00     0.008 A 
ATOM     14  C12 UNK d          23.582  33.752  29.250  0.00  0.00     0.000 A 
ATOM     15  C17 UNK d          23.726  34.443  29.667  0.00  0.00     0.000 A 
ATOM     16  C18 UNK d          24.503  34.658  29.869  0.00  0.00     0.000 A 
ATOM     17  C16 UNK d          25.128  34.167  29.645  0.00  0.00     0.000 A 
ATOM     18  C13 UNK d          24.983  33.470  29.224  0.00  0.00     0.000 A 
ENDBRANCH   1  13
TORSDOF 1
ENDMDL
MODEL 4
REMARK VINA RESULT:      -2.5      0.868      1.125
REMARK  1 active torsions:
REMARK  status: ('A' for Active; 'I' for Inactive)
REMARK    1  A    between atoms: C1_1  and  C7_7 
ROOT
ATOM      1  C1  UNK d          24.692  33.341  28.466  0.00  0.00     0.102 A 
ATOM      2  C2  UNK d          25.279  33.764  28.071  0.00  0.00     0.203 A 
ATOM      3  C3  UNK d          24.309  33.663  29.120  0.00  0.00     0.303 A 
ATOM      4  O4  UNK d          24.525  34.420  29.374  0.00  0.00    -0.273 OA
ATOM      5  C5  UNK d          25.483  34.513  28.333  0.00  0.00     0.062 A 
ATOM      6  C6  UNK d          25.112  34.844  28.979  0.00  0.00     0.106 A 
ATOM      7  O8  UNK d          23.721  33.240  29.515  0.00  0.00    -0.259 OA
ATOM      8  O9  UNK d          25.658  33.431  27.415  0.00  0.00    -0.286 OA
ATOM      9  C10 UNK d          26.063  34.927  27.941  0.00  0.00     0.005 A 
ATOM     10  C11 UNK d          25.317  35.587  29.236  0.00  0.00     0.025 A 
ATOM     11  C14 UNK d          26.274  35.673  28.193  0.00  0.00     0.000 A 
ATOM     12  C15 UNK d          25.896  36.004  28.847  0.00  0.00     0.002 A 
ENDROOT
BRANCH   1  13
ATOM     13  C7  UNK d          24.486  32.587  28.203  0.00  0.00     0.008 A 
ATOM     14  C12 UNK d          24.873  31.923  28.516  0.00  0.00     0.000 A 
ATOM     15  C17 UNK d          24.670  31.172  28.256  0.00  0.00     0.000 A 
ATOM     16  C18 UNK d          24.078  31.072  27.681  0.00  0.00     0.000 A 
ATOM     17  C16 UNK d          23.697  31.736  27.375  0.00  0.00     0.000 A 
ATOM     18  C13 UNK d          23.901  32.494  27.636  0.00  0.00     0.000 A 
ENDBRANCH   1  13
TORSDOF 1
ENDMDL
MODEL 5
REMARK VINA RESULT:      -2.5      1.142      3.618
REMARK  1 active torsions:
REMARK  status: ('A' for Active; 'I' for Inactive)
REMARK    1  A    between atoms: C1_1  and  C7_7 
ROOT
ATOM      1  C1  UNK d          25.512  34.529  28.521  0.00  0.00     0.102 A 
ATOM      2  C2  UNK d          25.479  33.935  27.950  0.00  0.00     0.203 A 
ATOM      3  C3  UNK d          24.927  34.591  29.098  0.00  0.00     0.303 A 
ATOM      4  O4  UNK d          24.305  34.046  29.093  0.00  0.00    -0.273 OA
ATOM      5  C5  UNK d          24.858  33.402  27.957  0.00  0.00     0.062 A 
ATOM      6  C6  UNK d          24.273  33.452  28.521  0.00  0.00     0.106 A 
ATOM      7  O8  UNK d          24.960  35.185  29.670  0.00  0.00    -0.259 OA
ATOM      8  O9  UNK d          26.072  33.882  27.375  0.00  0.00    -0.286 OA
ATOM      9  C10 UNK d          24.830  32.818  27.392  0.00  0.00     0.005 A 
ATOM     10  C11 UNK d          23.658  32.921  28.525  0.00  0.00     0.025 A 
ATOM     11  C14 UNK d          24.215  32.281  27.390  0.00  0.00     0.000 A 
ATOM     12  C15 UNK d          23.625  32.335  27.962  0.00  0.00     0.002 A 
ENDROOT
BRANCH   1  13
ATOM     13  C7  UNK d          26.137  35.067  28.515  0.00  0.00     0.008 A 
ATOM     14  C12 UNK d          26.075  35.765  28.070  0.00  0.00     0.000 A 
ATOM     15  C17 UNK d          26.695  36.301  28.063  0.00  0.00     0.000 A 
ATOM     16  C18 UNK d          27.387  36.150  28.498  0.00  0.00     0.000 A 
ATOM     17  C16 UNK d          27.442  35.455  28.939  0.00  0.00     0.000 A 
ATOM     18  C13 UNK d          26.817  34.914  28.947  0.00  0.00     0.000 A 
ENDBRANCH   1  13
TORSDOF 1
ENDMDL
MODEL 6
REMARK VINA RESULT:      -2.4      2.174      3.632
REMARK  1 active torsions:
REMARK  status: ('A' for Active; 'I' for Inactive)
REMARK    1  A    between atoms: C1_1  and  C7_7 
ROOT
ATOM      1  C1  UNK d          24.053  34.415  29.626  0.00  0.00     0.102 A 
ATOM      2  C2  UNK d          23.689  33.750  29.301  0.00  0.00     0.203 A 
ATOM      3  C3  UNK d          24.756  34.706  29.310  0.00  0.00     0.303 A 
ATOM      4  O4  UNK d          25.089  34.319  28.660  0.00  0.00    -0.273 OA
ATOM      5  C5  UNK d          24.030  33.376  28.657  0.00  0.00     0.062 A 
ATOM      6  C6  UNK d          24.725  33.654  28.335  0.00  0.00     0.106 A 
ATOM      7  O8  UNK d          25.121  35.371  29.635  0.00  0.00    -0.259 OA
ATOM      8  O9  UNK d          22.983  33.465  29.626  0.00  0.00    -0.286 OA
ATOM      9  C10 UNK d          23.667  32.722  28.339  0.00  0.00     0.005 A 
ATOM     10  C11 UNK d          25.060  33.281  27.695  0.00  0.00     0.025 A 
ATOM     11  C14 UNK d          23.999  32.342  27.698  0.00  0.00     0.000 A 
ATOM     12  C15 UNK d          24.701  32.626  27.375  0.00  0.00     0.002 A 
ENDROOT
BRANCH   1  13
ATOM     13  C7  UNK d          23.711  34.792  30.275  0.00  0.00     0.008 A 
ATOM     14  C12 UNK d          23.163  35.403  30.152  0.00  0.00     0.000 A 
ATOM     15  C17 UNK d          22.821  35.780  30.796  0.00  0.00     0.000 A 
ATOM     16  C18 UNK d          23.019  35.552  31.570  0.00  0.00     0.000 A 
ATOM     17  C16 UNK d          23.565  34.943  31.684  0.00  0.00     0.000 A 
ATOM     18  C13 UNK d          23.910  34.564  31.036  0.00  0.00     0.000 A 
ENDBRANCH   1  13
TORSDOF 1
ENDMDL
