MODEL 1
REMARK VINA RESULT:      -2.3      0.000      0.000
REMARK  4 active torsions:
REMARK  status: ('A' for Active; 'I' for Inactive)
REMARK    1  A    between atoms: C2_2  and  C9_9 
REMARK    2  A    between atoms: C9_9  and  C10_10 
REMARK    3  A    between atoms: C10_10  and  S12_12 
REMARK    4  A    between atoms: S12_12  and  C13_13 
ROOT
ATOM      1  C9  UNK d          24.107  32.867  28.085  0.00  0.00     0.202 C 
ATOM      2  O11 UNK d          24.321  33.254  27.389  0.00  0.00    -0.286 OA
ENDROOT
BRANCH   1   3
ATOM      3  C2  UNK d          24.005  33.295  28.782  0.00  0.00     0.043 A 
ATOM      4  C1  UNK d          23.242  33.466  29.057  0.00  0.00     0.007 A 
ATOM      5  C6  UNK d          23.139  33.893  29.751  0.00  0.00     0.045 A 
ATOM      6  C5  UNK d          23.794  34.154  30.178  0.00  0.00     0.234 A 
ATOM      7  C4  UNK d          24.560  33.986  29.907  0.00  0.00     0.234 A 
ATOM      8  O7  UNK d          23.688  34.582  30.874  0.00  0.00    -0.283 OA
ATOM      9  C3  UNK d          24.663  33.555  29.207  0.00  0.00     0.049 A 
ATOM     10  O8  UNK d          25.217  34.246  30.332  0.00  0.00    -0.283 OA
ENDBRANCH   1   3
BRANCH   1  11
ATOM     11  C10 UNK d          23.996  32.049  28.084  0.00  0.00     0.080 C 
BRANCH  11  12
ATOM     12  S12 UNK d          24.120  31.617  27.392  0.00  0.00    -0.045 SA
BRANCH  12  13
ATOM     13  C13 UNK d          24.057  30.794  27.403  0.00  0.00     0.197 A 
ATOM     14  N14 UNK d          24.742  30.328  27.433  0.00  0.00    -0.221 NA
ATOM     15  C18 UNK d          24.682  29.507  27.444  0.00  0.00     0.088 A 
ATOM     16  C17 UNK d          23.936  29.151  27.425  0.00  0.00     0.082 A 
ATOM     17  C19 UNK d          25.363  29.042  27.474  0.00  0.00     0.021 C 
ATOM     18  C16 UNK d          23.254  29.617  27.395  0.00  0.00     0.283 A 
ATOM     19  N15 UNK d          23.321  30.440  27.384  0.00  0.00    -0.183 NA
ATOM     20  O20 UNK d          22.510  29.262  27.376  0.00  0.00    -0.265 OA
ENDBRANCH  12  13
ENDBRANCH  11  12
ENDBRANCH   1  11
TORSDOF 4
ENDMDL
MODEL 2
REMARK VINA RESULT:      -2.2      2.614      3.828
REMARK  4 active torsions:
REMARK  status: ('A' for Active; 'I' for Inactive)
REMARK    1  A    between atoms: C2_2  and  C9_9 
REMARK    2  A    between atoms: C9_9  and  C10_10 
REMARK    3  A    between atoms: C10_10  and  S12_12 
REMARK    4  A    between atoms: S12_12  and  C13_13 
ROOT
ATOM      1  C9  UNK d          24.089  33.110  28.219  0.00  0.00     0.202 C 
ATOM      2  O11 UNK d          23.770  32.786  27.531  0.00  0.00    -0.286 OA
ENDROOT
BRANCH   1   3
ATOM      3  C2  UNK d          23.693  33.025  28.938  0.00  0.00     0.043 A 
ATOM      4  C1  UNK d          23.227  33.643  29.232  0.00  0.00     0.007 A 
ATOM      5  C6  UNK d          22.833  33.559  29.948  0.00  0.00     0.045 A 
ATOM      6  C5  UNK d          22.898  32.858  30.377  0.00  0.00     0.234 A 
ATOM      7  C4  UNK d          23.364  32.236  30.087  0.00  0.00     0.234 A 
ATOM      8  O7  UNK d          22.502  32.776  31.095  0.00  0.00    -0.283 OA
ATOM      9  C3  UNK d          23.761  32.322  29.365  0.00  0.00     0.049 A 
ATOM     10  O8  UNK d          23.432  31.533  30.515  0.00  0.00    -0.283 OA
ENDBRANCH   1   3
BRANCH   1  11
ATOM     11  C10 UNK d          24.804  33.520  28.189  0.00  0.00     0.080 C 
BRANCH  11  12
ATOM     12  S12 UNK d          25.192  33.619  27.468  0.00  0.00    -0.045 SA
BRANCH  12  13
ATOM     13  C13 UNK d          25.914  34.018  27.439  0.00  0.00     0.197 A 
ATOM     14  N14 UNK d          26.622  33.588  27.425  0.00  0.00    -0.221 NA
ATOM     15  C18 UNK d          27.345  33.983  27.397  0.00  0.00     0.088 A 
ATOM     16  C17 UNK d          27.359  34.809  27.382  0.00  0.00     0.082 A 
ATOM     17  C19 UNK d          28.050  33.556  27.382  0.00  0.00     0.021 C 
ATOM     18  C16 UNK d          26.651  35.236  27.397  0.00  0.00     0.283 A 
ATOM     19  N15 UNK d          25.930  34.834  27.425  0.00  0.00    -0.183 NA
ATOM     20  O20 UNK d          26.665  36.061  27.383  0.00  0.00    -0.265 OA
ENDBRANCH  12  13
ENDBRANCH  11  12
ENDBRANCH   1  11
TORSDOF 4
ENDMDL
MODEL 3
REMARK VINA RESULT:      -2.2      2.977      5.239
REMARK  4 active torsions:
REMARK  status: ('A' for Active; 'I' for Inactive)
REMARK    1  A    between atoms: C2_2  and  C9_9 
REMARK    2  A    between atoms: C9_9  and  C10_10 
REMARK    3  A    between atoms: C10_10  and  S12_12 
REMARK    4  A    between atoms: S12_12  and  C13_13 
ROOT
ATOM      1  C9  UNK d          25.440  33.605  28.954  0.00  0.00     0.202 C 
ATOM      2  O11 UNK d          26.118  33.365  29.359  0.00  0.00    -0.286 OA
ENDROOT
BRANCH   1   3
ATOM      3  C2  UNK d          24.964  33.047  28.578  0.00  0.00     0.043 A 
ATOM      4  C1  UNK d          24.929  33.020  27.751  0.00  0.00     0.007 A 
ATOM      5  C6  UNK d          24.455  32.464  27.375  0.00  0.00     0.045 A 
ATOM      6  C5  UNK d          24.011  31.930  27.819  0.00  0.00     0.234 A 
ATOM      7  C4  UNK d          24.043  31.953  28.648  0.00  0.00     0.234 A 
ATOM      8  O7  UNK d          23.537  31.373  27.440  0.00  0.00    -0.283 OA
ATOM      9  C3  UNK d          24.521  32.513  29.026  0.00  0.00     0.049 A 
ATOM     10  O8  UNK d          23.600  31.419  29.095  0.00  0.00    -0.283 OA
ENDBRANCH   1   3
BRANCH   1  11
ATOM     11  C10 UNK d          25.239  34.405  28.925  0.00  0.00     0.080 C 
BRANCH  11  12
ATOM     12  S12 UNK d          25.690  34.959  29.338  0.00  0.00    -0.045 SA
BRANCH  12  13
ATOM     13  C13 UNK d          25.526  35.763  29.262  0.00  0.00     0.197 A 
ATOM     14  N14 UNK d          25.975  36.229  28.744  0.00  0.00    -0.221 NA
ATOM     15  C18 UNK d          25.813  37.033  28.666  0.00  0.00     0.088 A 
ATOM     16  C17 UNK d          25.201  37.372  29.107  0.00  0.00     0.082 A 
ATOM     17  C19 UNK d          26.259  37.498  28.150  0.00  0.00     0.021 C 
ATOM     18  C16 UNK d          24.754  36.906  29.623  0.00  0.00     0.283 A 
ATOM     19  N15 UNK d          24.922  36.101  29.697  0.00  0.00    -0.183 NA
ATOM     20  O20 UNK d          24.144  37.244  30.063  0.00  0.00    -0.265 OA
ENDBRANCH  12  13
ENDBRANCH  11  12
ENDBRANCH   1  11
TORSDOF 4
ENDMDL
MODEL 4
REMARK VINA RESULT:      -2.1      1.599      2.043
REMARK  4 active torsions:
REMARK  status: ('A' for Active; 'I' for Inactive)
REMARK    1  A    between atoms: C2_2  and  C9_9 
REMARK    2  A    between atoms: C9_9  and  C10_10 
REMARK    3  A    between atoms: C10_10  and  S12_12 
REMARK    4  A    between atoms: S12_12  and  C13_13 
ROOT
ATOM      1  C9  UNK d          24.342  32.874  27.983  0.00  0.00     0.202 C 
ATOM      2  O11 UNK d          23.558  32.998  27.757  0.00  0.00    -0.286 OA
ENDROOT
BRANCH   1   3
ATOM      3  C2  UNK d          24.865  33.510  28.021  0.00  0.00     0.043 A 
ATOM      4  C1  UNK d          25.351  33.688  27.375  0.00  0.00     0.007 A 
ATOM      5  C6  UNK d          25.874  34.321  27.412  0.00  0.00     0.045 A 
ATOM      6  C5  UNK d          25.917  34.784  28.093  0.00  0.00     0.234 A 
ATOM      7  C4  UNK d          25.432  34.609  28.744  0.00  0.00     0.234 A 
ATOM      8  O7  UNK d          26.441  35.418  28.129  0.00  0.00    -0.283 OA
ATOM      9  C3  UNK d          24.906  33.971  28.706  0.00  0.00     0.049 A 
ATOM     10  O8  UNK d          25.473  35.070  29.427  0.00  0.00    -0.283 OA
ENDBRANCH   1   3
BRANCH   1  11
ATOM     11  C10 UNK d          24.602  32.114  28.170  0.00  0.00     0.080 C 
BRANCH  11  12
ATOM     12  S12 UNK d          24.076  31.479  28.141  0.00  0.00    -0.045 SA
BRANCH  12  13
ATOM     13  C13 UNK d          24.333  30.721  28.341  0.00  0.00     0.197 A 
ATOM     14  N14 UNK d          24.295  30.466  29.129  0.00  0.00    -0.221 NA
ATOM     15  C18 UNK d          24.550  29.710  29.331  0.00  0.00     0.088 A 
ATOM     16  C17 UNK d          24.846  29.208  28.745  0.00  0.00     0.082 A 
ATOM     17  C19 UNK d          24.512  29.456  30.115  0.00  0.00     0.021 C 
ATOM     18  C16 UNK d          24.884  29.463  27.960  0.00  0.00     0.283 A 
ATOM     19  N15 UNK d          24.626  30.223  27.763  0.00  0.00    -0.183 NA
ATOM     20  O20 UNK d          25.179  28.962  27.375  0.00  0.00    -0.265 OA
ENDBRANCH  12  13
ENDBRANCH  11  12
ENDBRANCH   1  11
TORSDOF 4
ENDMDL
MODEL 5
REMARK VINA RESULT:      -2.1      1.948      4.490
REMARK  4 active torsions:
REMARK  status: ('A' for Active; 'I' for Inactive)
REMARK    1  A    between atoms: C2_2  and  C9_9 
REMARK    2  A    between atoms: C9_9  and  C10_10 
REMARK    3  A    between atoms: C10_10  and  S12_12 
REMARK    4  A    between atoms: S12_12  and  C13_13 
ROOT
ATOM      1  C9  UNK d          24.164  31.551  27.786  0.00  0.00     0.202 C 
ATOM      2  O11 UNK d          23.456  31.657  27.376  0.00  0.00    -0.286 OA
ENDROOT
BRANCH   1   3
ATOM      3  C2  UNK d          24.438  30.791  27.949  0.00  0.00     0.043 A 
ATOM      4  C1  UNK d          24.982  30.428  27.442  0.00  0.00     0.007 A 
ATOM      5  C6  UNK d          25.256  29.670  27.603  0.00  0.00     0.045 A 
ATOM      6  C5  UNK d          24.990  29.266  28.271  0.00  0.00     0.234 A 
ATOM      7  C4  UNK d          24.444  29.626  28.782  0.00  0.00     0.234 A 
ATOM      8  O7  UNK d          25.265  28.506  28.431  0.00  0.00    -0.283 OA
ATOM      9  C3  UNK d          24.169  30.390  28.619  0.00  0.00     0.049 A 
ATOM     10  O8  UNK d          24.176  29.225  29.452  0.00  0.00    -0.283 OA
ENDBRANCH   1   3
BRANCH   1  11
ATOM     11  C10 UNK d          24.599  32.207  28.034  0.00  0.00     0.080 C 
BRANCH  11  12
ATOM     12  S12 UNK d          24.334  32.968  27.856  0.00  0.00    -0.045 SA
BRANCH  12  13
ATOM     13  C13 UNK d          24.765  33.625  28.109  0.00  0.00     0.197 A 
ATOM     14  N14 UNK d          25.354  33.944  27.620  0.00  0.00    -0.221 NA
ATOM     15  C18 UNK d          25.786  34.600  27.869  0.00  0.00     0.088 A 
ATOM     16  C17 UNK d          25.630  34.936  28.608  0.00  0.00     0.082 A 
ATOM     17  C19 UNK d          26.372  34.919  27.384  0.00  0.00     0.021 C 
ATOM     18  C16 UNK d          25.043  34.615  29.094  0.00  0.00     0.283 A 
ATOM     19  N15 UNK d          24.613  33.959  28.839  0.00  0.00    -0.183 NA
ATOM     20  O20 UNK d          24.888  34.951  29.832  0.00  0.00    -0.265 OA
ENDBRANCH  12  13
ENDBRANCH  11  12
ENDBRANCH   1  11
TORSDOF 4
ENDMDL
MODEL 6
REMARK VINA RESULT:      -2.0      2.491      3.205
REMARK  4 active torsions:
REMARK  status: ('A' for Active; 'I' for Inactive)
REMARK    1  A    between atoms: C2_2  and  C9_9 
REMARK    2  A    between atoms: C9_9  and  C10_10 
REMARK    3  A    between atoms: C10_10  and  S12_12 
REMARK    4  A    between atoms: S12_12  and  C13_13 
ROOT
ATOM      1  C9  UNK d          26.237  34.335  28.613  0.00  0.00     0.202 C 
ATOM      2  O11 UNK d          26.962  34.028  28.860  0.00  0.00    -0.286 OA
ENDROOT
BRANCH   1   3
ATOM      3  C2  UNK d          26.182  35.124  28.379  0.00  0.00     0.043 A 
ATOM      4  C1  UNK d          26.391  35.345  27.609  0.00  0.00     0.007 A 
ATOM      5  C6  UNK d          26.336  36.131  27.375  0.00  0.00     0.045 A 
ATOM      6  C5  UNK d          26.072  36.704  27.906  0.00  0.00     0.234 A 
ATOM      7  C4  UNK d          25.861  36.487  28.679  0.00  0.00     0.234 A 
ATOM      8  O7  UNK d          26.017  37.492  27.670  0.00  0.00    -0.283 OA
ATOM      9  C3  UNK d          25.917  35.695  28.914  0.00  0.00     0.049 A 
ATOM     10  O8  UNK d          25.597  37.058  29.213  0.00  0.00    -0.283 OA
ENDBRANCH   1   3
BRANCH   1  11
ATOM     11  C10 UNK d          25.568  33.853  28.599  0.00  0.00     0.080 C 
BRANCH  11  12
ATOM     12  S12 UNK d          25.634  33.050  28.778  0.00  0.00    -0.045 SA
BRANCH  12  13
ATOM     13  C13 UNK d          24.964  32.569  28.770  0.00  0.00     0.197 A 
ATOM     14  N14 UNK d          24.754  32.167  28.076  0.00  0.00    -0.221 NA
ATOM     15  C18 UNK d          24.085  31.686  28.065  0.00  0.00     0.088 A 
ATOM     16  C17 UNK d          23.626  31.607  28.748  0.00  0.00     0.082 A 
ATOM     17  C19 UNK d          23.875  31.284  27.375  0.00  0.00     0.021 C 
ATOM     18  C16 UNK d          23.837  32.010  29.438  0.00  0.00     0.283 A 
ATOM     19  N15 UNK d          24.508  32.490  29.443  0.00  0.00    -0.183 NA
ATOM     20  O20 UNK d          23.379  31.932  30.120  0.00  0.00    -0.265 OA
ENDBRANCH  12  13
ENDBRANCH  11  12
ENDBRANCH   1  11
TORSDOF 4
ENDMDL
