MODEL 1
REMARK VINA RESULT:      -1.5      0.000      0.000
REMARK  4 active torsions:
REMARK  status: ('A' for Active; 'I' for Inactive)
REMARK    1  A    between atoms: C2_2  and  C4_4 
REMARK    2  A    between atoms: C4_4  and  C6_6 
REMARK    3  A    between atoms: C6_6  and  C7_7 
REMARK    4  A    between atoms: C7_7  and  C9_9 
ROOT
ATOM      1  C7  UNK d          24.100  33.238  28.363  0.00  0.00     0.104 C 
ATOM      2  O8  UNK d          23.080  33.630  29.391  0.00  0.00    -0.195 OA
ENDROOT
BRANCH   1   3
ATOM      3  C6  UNK d          23.826  32.092  27.435  0.00  0.00     0.098 C 
BRANCH   3   4
ATOM      4  C4  UNK d          23.847  30.685  27.954  0.00  0.00     0.245 C 
ATOM      5  O5  UNK d          22.915  29.659  27.379  0.00  0.00    -0.211 OA
BRANCH   4   6
ATOM      6  C2  UNK d          24.799  30.302  29.048  0.00  0.00     0.218 C 
ATOM      7  O1  UNK d          26.253  30.097  28.739  0.00  0.00    -0.645 OA
ATOM      8  O3  UNK d          24.298  30.126  30.450  0.00  0.00    -0.645 OA
ENDBRANCH   4   6
ENDBRANCH   3   4
ENDBRANCH   1   3
BRANCH   1   9
ATOM      9  C9  UNK d          25.393  33.991  28.264  0.00  0.00    -0.023 A 
ATOM     10  C10 UNK d          25.543  35.317  28.949  0.00  0.00     0.024 A 
ATOM     11  C11 UNK d          26.837  36.070  28.850  0.00  0.00     0.004 A 
ATOM     12  C12 UNK d          27.980  35.497  28.066  0.00  0.00     0.001 A 
ATOM     13  C13 UNK d          27.830  34.171  27.382  0.00  0.00     0.004 A 
ATOM     14  C14 UNK d          26.537  33.417  27.481  0.00  0.00     0.024 A 
ENDBRANCH   1   9
TORSDOF 4
ENDMDL
MODEL 2
REMARK VINA RESULT:      -1.4      1.065      1.953
REMARK  4 active torsions:
REMARK  status: ('A' for Active; 'I' for Inactive)
REMARK    1  A    between atoms: C2_2  and  C4_4 
REMARK    2  A    between atoms: C4_4  and  C6_6 
REMARK    3  A    between atoms: C6_6  and  C7_7 
REMARK    4  A    between atoms: C7_7  and  C9_9 
ROOT
ATOM      1  C7  UNK d          23.965  32.804  28.780  0.00  0.00     0.104 C 
ATOM      2  O8  UNK d          23.318  32.536  30.107  0.00  0.00    -0.195 OA
ENDROOT
BRANCH   1   3
ATOM      3  C6  UNK d          23.685  31.903  27.614  0.00  0.00     0.098 C 
BRANCH   3   4
ATOM      4  C4  UNK d          23.987  30.437  27.709  0.00  0.00     0.245 C 
ATOM      5  O5  UNK d          22.922  29.430  27.389  0.00  0.00    -0.211 OA
BRANCH   4   6
ATOM      6  C2  UNK d          25.353  29.978  28.125  0.00  0.00     0.218 C 
ATOM      7  O1  UNK d          25.507  29.025  29.273  0.00  0.00    -0.645 OA
ATOM      8  O3  UNK d          26.565  30.472  27.392  0.00  0.00    -0.645 OA
ENDBRANCH   4   6
ENDBRANCH   3   4
ENDBRANCH   1   3
BRANCH   1   9
ATOM      9  C9  UNK d          24.892  33.972  28.620  0.00  0.00    -0.023 A 
ATOM     10  C10 UNK d          25.929  33.963  27.535  0.00  0.00     0.024 A 
ATOM     11  C11 UNK d          26.856  35.132  27.375  0.00  0.00     0.004 A 
ATOM     12  C12 UNK d          26.747  36.308  28.299  0.00  0.00     0.001 A 
ATOM     13  C13 UNK d          25.710  36.317  29.383  0.00  0.00     0.004 A 
ATOM     14  C14 UNK d          24.783  35.149  29.543  0.00  0.00     0.024 A 
ENDBRANCH   1   9
TORSDOF 4
ENDMDL
MODEL 3
REMARK VINA RESULT:      -1.4      2.638      5.213
REMARK  4 active torsions:
REMARK  status: ('A' for Active; 'I' for Inactive)
REMARK    1  A    between atoms: C2_2  and  C4_4 
REMARK    2  A    between atoms: C4_4  and  C6_6 
REMARK    3  A    between atoms: C6_6  and  C7_7 
REMARK    4  A    between atoms: C7_7  and  C9_9 
ROOT
ATOM      1  C7  UNK d          26.808  34.276  28.377  0.00  0.00     0.104 C 
ATOM      2  O8  UNK d          27.915  34.426  27.376  0.00  0.00    -0.195 OA
ENDROOT
BRANCH   1   3
ATOM      3  C6  UNK d          26.597  35.329  29.425  0.00  0.00     0.098 C 
BRANCH   3   4
ATOM      4  C4  UNK d          25.407  36.238  29.345  0.00  0.00     0.245 C 
ATOM      5  O5  UNK d          25.474  37.489  28.520  0.00  0.00    -0.211 OA
BRANCH   4   6
ATOM      6  C2  UNK d          24.151  35.897  30.090  0.00  0.00     0.218 C 
ATOM      7  O1  UNK d          24.068  34.623  30.877  0.00  0.00    -0.645 OA
ATOM      8  O3  UNK d          22.977  36.831  30.048  0.00  0.00    -0.645 OA
ENDBRANCH   4   6
ENDBRANCH   3   4
ENDBRANCH   1   3
BRANCH   1   9
ATOM      9  C9  UNK d          25.914  33.073  28.332  0.00  0.00    -0.023 A 
ATOM     10  C10 UNK d          26.212  31.883  29.194  0.00  0.00     0.024 A 
ATOM     11  C11 UNK d          25.317  30.680  29.148  0.00  0.00     0.004 A 
ATOM     12  C12 UNK d          24.124  30.667  28.240  0.00  0.00     0.001 A 
ATOM     13  C13 UNK d          23.825  31.858  27.378  0.00  0.00     0.004 A 
ATOM     14  C14 UNK d          24.720  33.061  27.423  0.00  0.00     0.024 A 
ENDBRANCH   1   9
TORSDOF 4
ENDMDL
MODEL 4
REMARK VINA RESULT:      -1.4      1.799      2.945
REMARK  4 active torsions:
REMARK  status: ('A' for Active; 'I' for Inactive)
REMARK    1  A    between atoms: C2_2  and  C4_4 
REMARK    2  A    between atoms: C4_4  and  C6_6 
REMARK    3  A    between atoms: C6_6  and  C7_7 
REMARK    4  A    between atoms: C7_7  and  C9_9 
ROOT
ATOM      1  C7  UNK d          24.906  32.695  28.139  0.00  0.00     0.104 C 
ATOM      2  O8  UNK d          26.381  32.486  27.959  0.00  0.00    -0.195 OA
ENDROOT
BRANCH   1   3
ATOM      3  C6  UNK d          23.931  31.770  27.472  0.00  0.00     0.098 C 
BRANCH   3   4
ATOM      4  C4  UNK d          23.599  30.450  28.103  0.00  0.00     0.245 C 
ATOM      5  O5  UNK d          22.708  29.480  27.386  0.00  0.00    -0.211 OA
BRANCH   4   6
ATOM      6  C2  UNK d          24.157  30.101  29.451  0.00  0.00     0.218 C 
ATOM      7  O1  UNK d          23.369  30.404  30.691  0.00  0.00    -0.645 OA
ATOM      8  O3  UNK d          25.503  29.449  29.559  0.00  0.00    -0.645 OA
ENDBRANCH   4   6
ENDBRANCH   3   4
ENDBRANCH   1   3
BRANCH   1   9
ATOM      9  C9  UNK d          24.407  33.828  28.984  0.00  0.00    -0.023 A 
ATOM     10  C10 UNK d          25.303  34.993  29.283  0.00  0.00     0.024 A 
ATOM     11  C11 UNK d          24.804  36.127  30.129  0.00  0.00     0.004 A 
ATOM     12  C12 UNK d          23.407  36.096  30.676  0.00  0.00     0.001 A 
ATOM     13  C13 UNK d          22.511  34.931  30.377  0.00  0.00     0.004 A 
ATOM     14  C14 UNK d          23.010  33.797  29.531  0.00  0.00     0.024 A 
ENDBRANCH   1   9
TORSDOF 4
ENDMDL
MODEL 5
REMARK VINA RESULT:      -1.3      2.423      5.225
REMARK  4 active torsions:
REMARK  status: ('A' for Active; 'I' for Inactive)
REMARK    1  A    between atoms: C2_2  and  C4_4 
REMARK    2  A    between atoms: C4_4  and  C6_6 
REMARK    3  A    between atoms: C6_6  and  C7_7 
REMARK    4  A    between atoms: C7_7  and  C9_9 
ROOT
ATOM      1  C7  UNK d          24.512  33.633  28.689  0.00  0.00     0.104 C 
ATOM      2  O8  UNK d          24.114  34.591  29.773  0.00  0.00    -0.195 OA
ENDROOT
BRANCH   1   3
ATOM      3  C6  UNK d          25.462  34.069  27.614  0.00  0.00     0.098 C 
BRANCH   3   4
ATOM      4  C4  UNK d          26.936  33.845  27.780  0.00  0.00     0.245 C 
ATOM      5  O5  UNK d          27.546  32.536  27.375  0.00  0.00    -0.211 OA
BRANCH   4   6
ATOM      6  C2  UNK d          27.800  34.930  28.351  0.00  0.00     0.218 C 
ATOM      7  O1  UNK d          27.173  36.098  29.051  0.00  0.00    -0.645 OA
ATOM      8  O3  UNK d          29.292  34.847  28.221  0.00  0.00    -0.645 OA
ENDBRANCH   4   6
ENDBRANCH   3   4
ENDBRANCH   1   3
BRANCH   1   9
ATOM      9  C9  UNK d          23.958  32.239  28.680  0.00  0.00    -0.023 A 
ATOM     10  C10 UNK d          23.844  31.486  27.388  0.00  0.00     0.024 A 
ATOM     11  C11 UNK d          23.291  30.092  27.379  0.00  0.00     0.004 A 
ATOM     12  C12 UNK d          22.850  29.451  28.662  0.00  0.00     0.001 A 
ATOM     13  C13 UNK d          22.964  30.205  29.954  0.00  0.00     0.004 A 
ATOM     14  C14 UNK d          23.518  31.599  29.963  0.00  0.00     0.024 A 
ENDBRANCH   1   9
TORSDOF 4
ENDMDL
MODEL 6
REMARK VINA RESULT:      -1.3      2.286      4.643
REMARK  4 active torsions:
REMARK  status: ('A' for Active; 'I' for Inactive)
REMARK    1  A    between atoms: C2_2  and  C4_4 
REMARK    2  A    between atoms: C4_4  and  C6_6 
REMARK    3  A    between atoms: C6_6  and  C7_7 
REMARK    4  A    between atoms: C7_7  and  C9_9 
ROOT
ATOM      1  C7  UNK d          23.772  34.476  29.710  0.00  0.00     0.104 C 
ATOM      2  O8  UNK d          22.502  35.209  30.026  0.00  0.00    -0.195 OA
ENDROOT
BRANCH   1   3
ATOM      3  C6  UNK d          25.092  35.177  29.830  0.00  0.00     0.098 C 
BRANCH   3   4
ATOM      4  C4  UNK d          26.161  34.945  28.804  0.00  0.00     0.245 C 
ATOM      5  O5  UNK d          26.103  35.658  27.486  0.00  0.00    -0.211 OA
BRANCH   4   6
ATOM      6  C2  UNK d          27.288  33.999  29.096  0.00  0.00     0.218 C 
ATOM      7  O1  UNK d          28.557  34.511  29.711  0.00  0.00    -0.645 OA
ATOM      8  O3  UNK d          27.147  32.541  28.772  0.00  0.00    -0.645 OA
ENDBRANCH   4   6
ENDBRANCH   3   4
ENDBRANCH   1   3
BRANCH   1   9
ATOM      9  C9  UNK d          23.721  33.042  29.273  0.00  0.00    -0.023 A 
ATOM     10  C10 UNK d          23.692  31.946  30.297  0.00  0.00     0.024 A 
ATOM     11  C11 UNK d          23.641  30.512  29.860  0.00  0.00     0.004 A 
ATOM     12  C12 UNK d          23.620  30.174  28.399  0.00  0.00     0.001 A 
ATOM     13  C13 UNK d          23.650  31.269  27.375  0.00  0.00     0.004 A 
ATOM     14  C14 UNK d          23.700  32.703  27.812  0.00  0.00     0.024 A 
ENDBRANCH   1   9
TORSDOF 4
ENDMDL
MODEL 7
REMARK VINA RESULT:      -1.3      1.983      3.194
REMARK  4 active torsions:
REMARK  status: ('A' for Active; 'I' for Inactive)
REMARK    1  A    between atoms: C2_2  and  C4_4 
REMARK    2  A    between atoms: C4_4  and  C6_6 
REMARK    3  A    between atoms: C6_6  and  C7_7 
REMARK    4  A    between atoms: C7_7  and  C9_9 
ROOT
ATOM      1  C7  UNK d          23.596  32.854  29.205  0.00  0.00     0.104 C 
ATOM      2  O8  UNK d          23.137  31.856  30.227  0.00  0.00    -0.195 OA
ENDROOT
BRANCH   1   3
ATOM      3  C6  UNK d          23.957  32.398  27.822  0.00  0.00     0.098 C 
BRANCH   3   4
ATOM      4  C4  UNK d          25.217  31.617  27.594  0.00  0.00     0.245 C 
ATOM      5  O5  UNK d          26.516  32.335  27.376  0.00  0.00    -0.211 OA
BRANCH   4   6
ATOM      6  C2  UNK d          25.178  30.118  27.585  0.00  0.00     0.218 C 
ATOM      7  O1  UNK d          26.442  29.336  27.378  0.00  0.00    -0.645 OA
ATOM      8  O3  UNK d          23.876  29.400  27.784  0.00  0.00    -0.645 OA
ENDBRANCH   4   6
ENDBRANCH   3   4
ENDBRANCH   1   3
BRANCH   1   9
ATOM      9  C9  UNK d          23.695  34.306  29.566  0.00  0.00    -0.023 A 
ATOM     10  C10 UNK d          24.983  35.046  29.356  0.00  0.00     0.024 A 
ATOM     11  C11 UNK d          25.082  36.498  29.717  0.00  0.00     0.004 A 
ATOM     12  C12 UNK d          23.892  37.211  30.288  0.00  0.00     0.001 A 
ATOM     13  C13 UNK d          22.604  36.472  30.498  0.00  0.00     0.004 A 
ATOM     14  C14 UNK d          22.505  35.020  30.137  0.00  0.00     0.024 A 
ENDBRANCH   1   9
TORSDOF 4
ENDMDL
MODEL 8
REMARK VINA RESULT:      -1.3      2.408      5.138
REMARK  4 active torsions:
REMARK  status: ('A' for Active; 'I' for Inactive)
REMARK    1  A    between atoms: C2_2  and  C4_4 
REMARK    2  A    between atoms: C4_4  and  C6_6 
REMARK    3  A    between atoms: C6_6  and  C7_7 
REMARK    4  A    between atoms: C7_7  and  C9_9 
ROOT
ATOM      1  C7  UNK d          24.428  33.197  30.087  0.00  0.00     0.104 C 
ATOM      2  O8  UNK d          24.928  33.187  31.501  0.00  0.00    -0.195 OA
ENDROOT
BRANCH   1   3
ATOM      3  C6  UNK d          24.463  34.467  29.289  0.00  0.00     0.098 C 
BRANCH   3   4
ATOM      4  C4  UNK d          25.770  34.993  28.773  0.00  0.00     0.245 C 
ATOM      5  O5  UNK d          25.873  36.413  28.302  0.00  0.00    -0.211 OA
BRANCH   4   6
ATOM      6  C2  UNK d          26.973  34.098  28.726  0.00  0.00     0.218 C 
ATOM      7  O1  UNK d          27.202  33.210  27.540  0.00  0.00    -0.645 OA
ATOM      8  O3  UNK d          27.947  34.091  29.867  0.00  0.00    -0.645 OA
ENDBRANCH   4   6
ENDBRANCH   3   4
ENDBRANCH   1   3
BRANCH   1   9
ATOM      9  C9  UNK d          23.894  31.938  29.471  0.00  0.00    -0.023 A 
ATOM     10  C10 UNK d          24.004  31.722  27.991  0.00  0.00     0.024 A 
ATOM     11  C11 UNK d          23.469  30.463  27.375  0.00  0.00     0.004 A 
ATOM     12  C12 UNK d          22.825  29.420  28.240  0.00  0.00     0.001 A 
ATOM     13  C13 UNK d          22.715  29.637  29.720  0.00  0.00     0.004 A 
ATOM     14  C14 UNK d          23.250  30.896  30.336  0.00  0.00     0.024 A 
ENDBRANCH   1   9
TORSDOF 4
ENDMDL
MODEL 9
REMARK VINA RESULT:      -1.3      2.220      5.533
REMARK  4 active torsions:
REMARK  status: ('A' for Active; 'I' for Inactive)
REMARK    1  A    between atoms: C2_2  and  C4_4 
REMARK    2  A    between atoms: C4_4  and  C6_6 
REMARK    3  A    between atoms: C6_6  and  C7_7 
REMARK    4  A    between atoms: C7_7  and  C9_9 
ROOT
ATOM      1  C7  UNK d          25.757  32.022  27.518  0.00  0.00     0.104 C 
ATOM      2  O8  UNK d          27.256  32.055  27.489  0.00  0.00    -0.195 OA
ENDROOT
BRANCH   1   3
ATOM      3  C6  UNK d          24.980  33.302  27.595  0.00  0.00     0.098 C 
BRANCH   3   4
ATOM      4  C4  UNK d          24.687  33.924  28.929  0.00  0.00     0.245 C 
ATOM      5  O5  UNK d          23.943  33.145  29.972  0.00  0.00    -0.211 OA
BRANCH   4   6
ATOM      6  C2  UNK d          25.139  35.324  29.219  0.00  0.00     0.218 C 
ATOM      7  O1  UNK d          24.252  36.253  29.994  0.00  0.00    -0.645 OA
ATOM      8  O3  UNK d          26.478  35.796  28.734  0.00  0.00    -0.645 OA
ENDBRANCH   4   6
ENDBRANCH   3   4
ENDBRANCH   1   3
BRANCH   1   9
ATOM      9  C9  UNK d          25.035  30.708  27.471  0.00  0.00    -0.023 A 
ATOM     10  C10 UNK d          25.811  29.425  27.471  0.00  0.00     0.024 A 
ATOM     11  C11 UNK d          25.089  28.111  27.424  0.00  0.00     0.004 A 
ATOM     12  C12 UNK d          23.590  28.080  27.377  0.00  0.00     0.001 A 
ATOM     13  C13 UNK d          22.813  29.363  27.378  0.00  0.00     0.004 A 
ATOM     14  C14 UNK d          23.536  30.677  27.425  0.00  0.00     0.024 A 
ENDBRANCH   1   9
TORSDOF 4
ENDMDL
