MODEL 1
REMARK VINA RESULT:      -2.3      0.000      0.000
REMARK  4 active torsions:
REMARK  status: ('A' for Active; 'I' for Inactive)
REMARK    1  A    between atoms: C2_2  and  C9_9 
REMARK    2  A    between atoms: C9_9  and  C10_10 
REMARK    3  A    between atoms: C10_10  and  S12_12 
REMARK    4  A    between atoms: S12_12  and  C13_13 
ROOT
ATOM      1  C9  UNK d          24.121  32.985  28.076  0.00  0.00     0.202 C 
ATOM      2  O11 UNK d          24.356  33.351  27.375  0.00  0.00    -0.286 OA
ENDROOT
BRANCH   1   3
ATOM      3  C2  UNK d          24.008  33.434  28.759  0.00  0.00     0.043 A 
ATOM      4  C1  UNK d          23.245  33.661  28.985  0.00  0.00     0.007 A 
ATOM      5  C6  UNK d          23.131  34.108  29.665  0.00  0.00     0.045 A 
ATOM      6  C5  UNK d          23.776  34.334  30.126  0.00  0.00     0.234 A 
ATOM      7  C4  UNK d          24.543  34.109  29.902  0.00  0.00     0.234 A 
ATOM      8  O7  UNK d          23.660  34.783  30.807  0.00  0.00    -0.283 OA
ATOM      9  C3  UNK d          24.657  33.659  29.217  0.00  0.00     0.049 A 
ATOM     10  O8  UNK d          25.191  34.334  30.361  0.00  0.00    -0.283 OA
ENDBRANCH   1   3
BRANCH   1  11
ATOM     11  C10 UNK d          23.998  32.170  28.095  0.00  0.00     0.080 C 
BRANCH  11  12
ATOM     12  S12 UNK d          24.086  31.724  27.406  0.00  0.00    -0.045 SA
BRANCH  12  13
ATOM     13  C13 UNK d          24.030  30.902  27.437  0.00  0.00     0.197 A 
ATOM     14  N14 UNK d          24.717  30.444  27.507  0.00  0.00    -0.221 NA
ATOM     15  C18 UNK d          24.666  29.622  27.538  0.00  0.00     0.088 A 
ATOM     16  C17 UNK d          23.924  29.258  27.500  0.00  0.00     0.082 A 
ATOM     17  C19 UNK d          25.349  29.166  27.608  0.00  0.00     0.021 C 
ATOM     18  C16 UNK d          23.240  29.716  27.430  0.00  0.00     0.283 A 
ATOM     19  N15 UNK d          23.299  30.539  27.399  0.00  0.00    -0.183 NA
ATOM     20  O20 UNK d          22.500  29.352  27.392  0.00  0.00    -0.265 OA
ENDBRANCH  12  13
ENDBRANCH  11  12
ENDBRANCH   1  11
TORSDOF 4
ENDMDL
MODEL 2
REMARK VINA RESULT:      -2.3      2.526      4.686
REMARK  4 active torsions:
REMARK  status: ('A' for Active; 'I' for Inactive)
REMARK    1  A    between atoms: C2_2  and  C9_9 
REMARK    2  A    between atoms: C9_9  and  C10_10 
REMARK    3  A    between atoms: C10_10  and  S12_12 
REMARK    4  A    between atoms: S12_12  and  C13_13 
ROOT
ATOM      1  C9  UNK d          24.168  33.309  28.622  0.00  0.00     0.202 C 
ATOM      2  O11 UNK d          23.535  33.750  28.913  0.00  0.00    -0.286 OA
ENDROOT
BRANCH   1   3
ATOM      3  C2  UNK d          24.055  32.523  28.399  0.00  0.00     0.043 A 
ATOM      4  C1  UNK d          23.999  32.322  27.598  0.00  0.00     0.007 A 
ATOM      5  C6  UNK d          23.887  31.539  27.375  0.00  0.00     0.045 A 
ATOM      6  C5  UNK d          23.830  30.949  27.948  0.00  0.00     0.234 A 
ATOM      7  C4  UNK d          23.885  31.146  28.752  0.00  0.00     0.234 A 
ATOM      8  O7  UNK d          23.717  30.164  27.722  0.00  0.00    -0.283 OA
ATOM      9  C3  UNK d          23.998  31.935  28.976  0.00  0.00     0.049 A 
ATOM     10  O8  UNK d          23.829  30.557  29.328  0.00  0.00    -0.283 OA
ENDBRANCH   1   3
BRANCH   1  11
ATOM     11  C10 UNK d          24.914  33.654  28.553  0.00  0.00     0.080 C 
BRANCH  11  12
ATOM     12  S12 UNK d          25.044  34.416  28.841  0.00  0.00    -0.045 SA
BRANCH  12  13
ATOM     13  C13 UNK d          25.775  34.780  28.727  0.00  0.00     0.197 A 
ATOM     14  N14 UNK d          25.872  35.324  28.108  0.00  0.00    -0.221 NA
ATOM     15  C18 UNK d          26.600  35.690  27.990  0.00  0.00     0.088 A 
ATOM     16  C17 UNK d          27.233  35.513  28.492  0.00  0.00     0.082 A 
ATOM     17  C19 UNK d          26.698  36.231  27.375  0.00  0.00     0.021 C 
ATOM     18  C16 UNK d          27.135  34.971  29.109  0.00  0.00     0.283 A 
ATOM     19  N15 UNK d          26.402  34.607  29.221  0.00  0.00    -0.183 NA
ATOM     20  O20 UNK d          27.766  34.794  29.609  0.00  0.00    -0.265 OA
ENDBRANCH  12  13
ENDBRANCH  11  12
ENDBRANCH   1  11
TORSDOF 4
ENDMDL
MODEL 3
REMARK VINA RESULT:      -2.2      2.558      3.739
REMARK  4 active torsions:
REMARK  status: ('A' for Active; 'I' for Inactive)
REMARK    1  A    between atoms: C2_2  and  C9_9 
REMARK    2  A    between atoms: C9_9  and  C10_10 
REMARK    3  A    between atoms: C10_10  and  S12_12 
REMARK    4  A    between atoms: S12_12  and  C13_13 
ROOT
ATOM      1  C9  UNK d          24.035  33.121  28.296  0.00  0.00     0.202 C 
ATOM      2  O11 UNK d          23.682  32.818  27.614  0.00  0.00    -0.286 OA
ENDROOT
BRANCH   1   3
ATOM      3  C2  UNK d          23.653  33.054  29.023  0.00  0.00     0.043 A 
ATOM      4  C1  UNK d          23.240  33.700  29.336  0.00  0.00     0.007 A 
ATOM      5  C6  UNK d          22.858  33.636  30.061  0.00  0.00     0.045 A 
ATOM      6  C5  UNK d          22.885  32.927  30.481  0.00  0.00     0.234 A 
ATOM      7  C4  UNK d          23.297  32.276  30.172  0.00  0.00     0.234 A 
ATOM      8  O7  UNK d          22.501  32.864  31.208  0.00  0.00    -0.283 OA
ATOM      9  C3  UNK d          23.681  32.343  29.441  0.00  0.00     0.049 A 
ATOM     10  O8  UNK d          23.325  31.566  30.590  0.00  0.00    -0.283 OA
ENDBRANCH   1   3
BRANCH   1  11
ATOM     11  C10 UNK d          24.771  33.490  28.249  0.00  0.00     0.080 C 
BRANCH  11  12
ATOM     12  S12 UNK d          25.143  33.578  27.518  0.00  0.00    -0.045 SA
BRANCH  12  13
ATOM     13  C13 UNK d          25.878  33.950  27.471  0.00  0.00     0.197 A 
ATOM     14  N14 UNK d          26.570  33.493  27.448  0.00  0.00    -0.221 NA
ATOM     15  C18 UNK d          27.306  33.861  27.401  0.00  0.00     0.088 A 
ATOM     16  C17 UNK d          27.350  34.686  27.378  0.00  0.00     0.082 A 
ATOM     17  C19 UNK d          27.995  33.408  27.378  0.00  0.00     0.021 C 
ATOM     18  C16 UNK d          26.659  35.139  27.401  0.00  0.00     0.283 A 
ATOM     19  N15 UNK d          25.925  34.765  27.448  0.00  0.00    -0.183 NA
ATOM     20  O20 UNK d          26.703  35.963  27.378  0.00  0.00    -0.265 OA
ENDBRANCH  12  13
ENDBRANCH  11  12
ENDBRANCH   1  11
TORSDOF 4
ENDMDL
MODEL 4
REMARK VINA RESULT:      -2.1      2.709      5.189
REMARK  4 active torsions:
REMARK  status: ('A' for Active; 'I' for Inactive)
REMARK    1  A    between atoms: C2_2  and  C9_9 
REMARK    2  A    between atoms: C9_9  and  C10_10 
REMARK    3  A    between atoms: C10_10  and  S12_12 
REMARK    4  A    between atoms: S12_12  and  C13_13 
ROOT
ATOM      1  C9  UNK d          24.720  33.958  29.202  0.00  0.00     0.202 C 
ATOM      2  O11 UNK d          25.529  34.110  29.260  0.00  0.00    -0.286 OA
ENDROOT
BRANCH   1   3
ATOM      3  C2  UNK d          24.450  33.325  28.748  0.00  0.00     0.043 A 
ATOM      4  C1  UNK d          24.414  33.391  27.923  0.00  0.00     0.007 A 
ATOM      5  C6  UNK d          24.145  32.762  27.469  0.00  0.00     0.045 A 
ATOM      6  C5  UNK d          23.910  32.060  27.832  0.00  0.00     0.234 A 
ATOM      7  C4  UNK d          23.944  31.989  28.659  0.00  0.00     0.234 A 
ATOM      8  O7  UNK d          23.640  31.429  27.375  0.00  0.00    -0.283 OA
ATOM      9  C3  UNK d          24.215  32.624  29.115  0.00  0.00     0.049 A 
ATOM     10  O8  UNK d          23.708  31.288  29.025  0.00  0.00    -0.283 OA
ENDBRANCH   1   3
BRANCH   1  11
ATOM     11  C10 UNK d          24.181  34.440  29.599  0.00  0.00     0.080 C 
BRANCH  11  12
ATOM     12  S12 UNK d          24.450  35.080  30.045  0.00  0.00    -0.045 SA
BRANCH  12  13
ATOM     13  C13 UNK d          23.910  35.576  30.423  0.00  0.00     0.197 A 
ATOM     14  N14 UNK d          23.665  36.276  30.055  0.00  0.00    -0.221 NA
ATOM     15  C18 UNK d          23.125  36.774  30.429  0.00  0.00     0.088 A 
ATOM     16  C17 UNK d          22.830  36.569  31.174  0.00  0.00     0.082 A 
ATOM     17  C19 UNK d          22.881  37.471  30.063  0.00  0.00     0.021 C 
ATOM     18  C16 UNK d          23.076  35.870  31.540  0.00  0.00     0.283 A 
ATOM     19  N15 UNK d          23.617  35.376  31.159  0.00  0.00    -0.183 NA
ATOM     20  O20 UNK d          22.782  35.666  32.284  0.00  0.00    -0.265 OA
ENDBRANCH  12  13
ENDBRANCH  11  12
ENDBRANCH   1  11
TORSDOF 4
ENDMDL
MODEL 5
REMARK VINA RESULT:      -2.0      1.975      4.406
REMARK  4 active torsions:
REMARK  status: ('A' for Active; 'I' for Inactive)
REMARK    1  A    between atoms: C2_2  and  C9_9 
REMARK    2  A    between atoms: C9_9  and  C10_10 
REMARK    3  A    between atoms: C10_10  and  S12_12 
REMARK    4  A    between atoms: S12_12  and  C13_13 
ROOT
ATOM      1  C9  UNK d          24.045  31.619  27.945  0.00  0.00     0.202 C 
ATOM      2  O11 UNK d          23.459  31.738  27.377  0.00  0.00    -0.286 OA
ENDROOT
BRANCH   1   3
ATOM      3  C2  UNK d          24.171  30.867  28.258  0.00  0.00     0.043 A 
ATOM      4  C1  UNK d          23.777  30.631  28.947  0.00  0.00     0.007 A 
ATOM      5  C6  UNK d          23.901  29.882  29.259  0.00  0.00     0.045 A 
ATOM      6  C5  UNK d          24.421  29.359  28.889  0.00  0.00     0.234 A 
ATOM      7  C4  UNK d          24.819  29.591  28.198  0.00  0.00     0.234 A 
ATOM      8  O7  UNK d          24.545  28.608  29.204  0.00  0.00    -0.283 OA
ATOM      9  C3  UNK d          24.692  30.347  27.884  0.00  0.00     0.049 A 
ATOM     10  O8  UNK d          25.339  29.070  27.825  0.00  0.00    -0.283 OA
ENDBRANCH   1   3
BRANCH   1  11
ATOM     11  C10 UNK d          24.505  32.254  28.201  0.00  0.00     0.080 C 
BRANCH  11  12
ATOM     12  S12 UNK d          24.378  33.008  27.890  0.00  0.00    -0.045 SA
BRANCH  12  13
ATOM     13  C13 UNK d          24.861  33.636  28.119  0.00  0.00     0.197 A 
ATOM     14  N14 UNK d          25.490  33.870  27.633  0.00  0.00    -0.221 NA
ATOM     15  C18 UNK d          25.976  34.497  27.858  0.00  0.00     0.088 A 
ATOM     16  C17 UNK d          25.831  34.889  28.572  0.00  0.00     0.082 A 
ATOM     17  C19 UNK d          26.602  34.731  27.375  0.00  0.00     0.021 C 
ATOM     18  C16 UNK d          25.204  34.654  29.055  0.00  0.00     0.283 A 
ATOM     19  N15 UNK d          24.721  34.026  28.823  0.00  0.00    -0.183 NA
ATOM     20  O20 UNK d          25.060  35.046  29.767  0.00  0.00    -0.265 OA
ENDBRANCH  12  13
ENDBRANCH  11  12
ENDBRANCH   1  11
TORSDOF 4
ENDMDL
MODEL 6
REMARK VINA RESULT:      -1.5      2.445      3.101
REMARK  4 active torsions:
REMARK  status: ('A' for Active; 'I' for Inactive)
REMARK    1  A    between atoms: C2_2  and  C9_9 
REMARK    2  A    between atoms: C9_9  and  C10_10 
REMARK    3  A    between atoms: C10_10  and  S12_12 
REMARK    4  A    between atoms: S12_12  and  C13_13 
ROOT
ATOM      1  C9  UNK d          26.225  34.332  28.602  0.00  0.00     0.202 C 
ATOM      2  O11 UNK d          26.947  34.034  28.867  0.00  0.00    -0.286 OA
ENDROOT
BRANCH   1   3
ATOM      3  C2  UNK d          26.160  35.123  28.381  0.00  0.00     0.043 A 
ATOM      4  C1  UNK d          26.320  35.352  27.601  0.00  0.00     0.007 A 
ATOM      5  C6  UNK d          26.256  36.140  27.380  0.00  0.00     0.045 A 
ATOM      6  C5  UNK d          26.033  36.709  27.933  0.00  0.00     0.234 A 
ATOM      7  C4  UNK d          25.872  36.485  28.716  0.00  0.00     0.234 A 
ATOM      8  O7  UNK d          25.969  37.500  27.709  0.00  0.00    -0.283 OA
ATOM      9  C3  UNK d          25.936  35.690  28.938  0.00  0.00     0.049 A 
ATOM     10  O8  UNK d          25.648  37.052  29.272  0.00  0.00    -0.283 OA
ENDBRANCH   1   3
BRANCH   1  11
ATOM     11  C10 UNK d          25.567  33.837  28.557  0.00  0.00     0.080 C 
BRANCH  11  12
ATOM     12  S12 UNK d          25.638  33.037  28.746  0.00  0.00    -0.045 SA
BRANCH  12  13
ATOM     13  C13 UNK d          24.969  32.555  28.762  0.00  0.00     0.197 A 
ATOM     14  N14 UNK d          24.602  32.381  29.485  0.00  0.00    -0.221 NA
ATOM     15  C18 UNK d          23.934  31.900  29.504  0.00  0.00     0.088 A 
ATOM     16  C17 UNK d          23.631  31.592  28.798  0.00  0.00     0.082 A 
ATOM     17  C19 UNK d          23.568  31.727  30.223  0.00  0.00     0.021 C 
ATOM     18  C16 UNK d          23.998  31.767  28.079  0.00  0.00     0.283 A 
ATOM     19  N15 UNK d          24.668  32.249  28.066  0.00  0.00    -0.183 NA
ATOM     20  O20 UNK d          23.696  31.459  27.375  0.00  0.00    -0.265 OA
ENDBRANCH  12  13
ENDBRANCH  11  12
ENDBRANCH   1  11
TORSDOF 4
ENDMDL
