MODEL 1
REMARK VINA RESULT:      -1.6      0.000      0.000
REMARK  4 active torsions:
REMARK  status: ('A' for Active; 'I' for Inactive)
REMARK    1  A    between atoms: C2_2  and  C4_4 
REMARK    2  A    between atoms: C4_4  and  C6_6 
REMARK    3  A    between atoms: C6_6  and  C7_7 
REMARK    4  A    between atoms: C7_7  and  C9_9 
ROOT
ATOM      1  C7  UNK d          24.019  32.708  28.648  0.00  0.00     0.104 C 
ATOM      2  O8  UNK d          23.407  32.258  29.941  0.00  0.00    -0.195 OA
ENDROOT
BRANCH   1   3
ATOM      3  C6  UNK d          23.880  31.861  27.418  0.00  0.00     0.098 C 
BRANCH   3   4
ATOM      4  C4  UNK d          24.054  30.374  27.508  0.00  0.00     0.245 C 
ATOM      5  O5  UNK d          22.853  29.476  27.489  0.00  0.00    -0.211 OA
BRANCH   4   6
ATOM      6  C2  UNK d          25.429  29.785  27.617  0.00  0.00     0.218 C 
ATOM      7  O1  UNK d          25.598  28.335  27.963  0.00  0.00    -0.645 OA
ATOM      8  O3  UNK d          26.635  30.645  27.380  0.00  0.00    -0.645 OA
ENDBRANCH   4   6
ENDBRANCH   3   4
ENDBRANCH   1   3
BRANCH   1   9
ATOM      9  C9  UNK d          24.769  34.005  28.585  0.00  0.00    -0.023 A 
ATOM     10  C10 UNK d          24.540  35.056  29.630  0.00  0.00     0.024 A 
ATOM     11  C11 UNK d          25.290  36.353  29.567  0.00  0.00     0.004 A 
ATOM     12  C12 UNK d          26.270  36.600  28.458  0.00  0.00     0.001 A 
ATOM     13  C13 UNK d          26.499  35.549  27.412  0.00  0.00     0.004 A 
ATOM     14  C14 UNK d          25.748  34.252  27.475  0.00  0.00     0.024 A 
ENDBRANCH   1   9
TORSDOF 4
ENDMDL
MODEL 2
REMARK VINA RESULT:      -1.5      1.397      2.524
REMARK  4 active torsions:
REMARK  status: ('A' for Active; 'I' for Inactive)
REMARK    1  A    between atoms: C2_2  and  C4_4 
REMARK    2  A    between atoms: C4_4  and  C6_6 
REMARK    3  A    between atoms: C6_6  and  C7_7 
REMARK    4  A    between atoms: C7_7  and  C9_9 
ROOT
ATOM      1  C7  UNK d          24.993  32.535  28.067  0.00  0.00     0.104 C 
ATOM      2  O8  UNK d          26.458  32.213  28.032  0.00  0.00    -0.195 OA
ENDROOT
BRANCH   1   3
ATOM      3  C6  UNK d          24.011  31.636  27.375  0.00  0.00     0.098 C 
BRANCH   3   4
ATOM      4  C4  UNK d          23.547  30.376  28.044  0.00  0.00     0.245 C 
ATOM      5  O5  UNK d          22.523  29.507  27.377  0.00  0.00    -0.211 OA
BRANCH   4   6
ATOM      6  C2  UNK d          24.108  29.985  29.379  0.00  0.00     0.218 C 
ATOM      7  O1  UNK d          25.336  29.127  29.455  0.00  0.00    -0.645 OA
ATOM      8  O3  UNK d          23.441  30.453  30.638  0.00  0.00    -0.645 OA
ENDBRANCH   4   6
ENDBRANCH   3   4
ENDBRANCH   1   3
BRANCH   1   9
ATOM      9  C9  UNK d          24.510  33.755  28.794  0.00  0.00    -0.023 A 
ATOM     10  C10 UNK d          25.405  34.951  28.928  0.00  0.00     0.024 A 
ATOM     11  C11 UNK d          24.922  36.171  29.654  0.00  0.00     0.004 A 
ATOM     12  C12 UNK d          23.544  36.195  30.248  0.00  0.00     0.001 A 
ATOM     13  C13 UNK d          22.650  34.998  30.114  0.00  0.00     0.004 A 
ATOM     14  C14 UNK d          23.133  33.778  29.387  0.00  0.00     0.024 A 
ENDBRANCH   1   9
TORSDOF 4
ENDMDL
MODEL 3
REMARK VINA RESULT:      -1.4      1.339      2.278
REMARK  4 active torsions:
REMARK  status: ('A' for Active; 'I' for Inactive)
REMARK    1  A    between atoms: C2_2  and  C4_4 
REMARK    2  A    between atoms: C4_4  and  C6_6 
REMARK    3  A    between atoms: C6_6  and  C7_7 
REMARK    4  A    between atoms: C7_7  and  C9_9 
ROOT
ATOM      1  C7  UNK d          25.589  33.234  27.842  0.00  0.00     0.104 C 
ATOM      2  O8  UNK d          26.973  32.688  27.653  0.00  0.00    -0.195 OA
ENDROOT
BRANCH   1   3
ATOM      3  C6  UNK d          24.400  32.436  27.395  0.00  0.00     0.098 C 
BRANCH   3   4
ATOM      4  C4  UNK d          24.013  31.189  28.134  0.00  0.00     0.245 C 
ATOM      5  O5  UNK d          23.225  30.119  27.439  0.00  0.00    -0.211 OA
BRANCH   4   6
ATOM      6  C2  UNK d          24.413  31.013  29.569  0.00  0.00     0.218 C 
ATOM      7  O1  UNK d          23.544  31.561  30.663  0.00  0.00    -0.645 OA
ATOM      8  O3  UNK d          25.682  30.290  29.911  0.00  0.00    -0.645 OA
ENDBRANCH   4   6
ENDBRANCH   3   4
ENDBRANCH   1   3
BRANCH   1   9
ATOM      9  C9  UNK d          25.393  34.578  28.479  0.00  0.00    -0.023 A 
ATOM     10  C10 UNK d          24.378  34.750  29.570  0.00  0.00     0.024 A 
ATOM     11  C11 UNK d          24.182  36.094  30.207  0.00  0.00     0.004 A 
ATOM     12  C12 UNK d          25.001  37.265  29.754  0.00  0.00     0.001 A 
ATOM     13  C13 UNK d          26.017  37.093  28.663  0.00  0.00     0.004 A 
ATOM     14  C14 UNK d          26.213  35.749  28.026  0.00  0.00     0.024 A 
ENDBRANCH   1   9
TORSDOF 4
ENDMDL
MODEL 4
REMARK VINA RESULT:      -1.4      2.512      5.560
REMARK  4 active torsions:
REMARK  status: ('A' for Active; 'I' for Inactive)
REMARK    1  A    between atoms: C2_2  and  C4_4 
REMARK    2  A    between atoms: C4_4  and  C6_6 
REMARK    3  A    between atoms: C6_6  and  C7_7 
REMARK    4  A    between atoms: C7_7  and  C9_9 
ROOT
ATOM      1  C7  UNK d          23.951  32.927  28.388  0.00  0.00     0.104 C 
ATOM      2  O8  UNK d          23.066  33.834  29.190  0.00  0.00    -0.195 OA
ENDROOT
BRANCH   1   3
ATOM      3  C6  UNK d          24.896  33.505  27.376  0.00  0.00     0.098 C 
BRANCH   3   4
ATOM      4  C4  UNK d          26.231  34.032  27.812  0.00  0.00     0.245 C 
ATOM      5  O5  UNK d          27.387  33.093  27.989  0.00  0.00    -0.211 OA
BRANCH   4   6
ATOM      6  C2  UNK d          26.410  35.499  28.072  0.00  0.00     0.218 C 
ATOM      7  O1  UNK d          27.518  36.251  27.397  0.00  0.00    -0.645 OA
ATOM      8  O3  UNK d          25.480  36.214  29.007  0.00  0.00    -0.645 OA
ENDBRANCH   4   6
ENDBRANCH   3   4
ENDBRANCH   1   3
BRANCH   1   9
ATOM      9  C9  UNK d          23.892  31.443  28.597  0.00  0.00    -0.023 A 
ATOM     10  C10 UNK d          23.642  30.531  27.432  0.00  0.00     0.024 A 
ATOM     11  C11 UNK d          23.582  29.047  27.641  0.00  0.00     0.004 A 
ATOM     12  C12 UNK d          23.772  28.475  29.015  0.00  0.00     0.001 A 
ATOM     13  C13 UNK d          24.022  29.387  30.179  0.00  0.00     0.004 A 
ATOM     14  C14 UNK d          24.082  30.871  29.970  0.00  0.00     0.024 A 
ENDBRANCH   1   9
TORSDOF 4
ENDMDL
MODEL 5
REMARK VINA RESULT:      -1.4      2.158      5.522
REMARK  4 active torsions:
REMARK  status: ('A' for Active; 'I' for Inactive)
REMARK    1  A    between atoms: C2_2  and  C4_4 
REMARK    2  A    between atoms: C4_4  and  C6_6 
REMARK    3  A    between atoms: C6_6  and  C7_7 
REMARK    4  A    between atoms: C7_7  and  C9_9 
ROOT
ATOM      1  C7  UNK d          25.946  32.081  27.555  0.00  0.00     0.104 C 
ATOM      2  O8  UNK d          27.427  32.017  27.787  0.00  0.00    -0.195 OA
ENDROOT
BRANCH   1   3
ATOM      3  C6  UNK d          25.271  33.410  27.382  0.00  0.00     0.098 C 
BRANCH   3   4
ATOM      4  C4  UNK d          25.123  34.333  28.554  0.00  0.00     0.245 C 
ATOM      5  O5  UNK d          25.627  35.743  28.467  0.00  0.00    -0.211 OA
BRANCH   4   6
ATOM      6  C2  UNK d          24.471  33.847  29.814  0.00  0.00     0.218 C 
ATOM      7  O1  UNK d          23.042  33.390  29.791  0.00  0.00    -0.645 OA
ATOM      8  O3  UNK d          25.247  33.818  31.098  0.00  0.00    -0.645 OA
ENDBRANCH   4   6
ENDBRANCH   3   4
ENDBRANCH   1   3
BRANCH   1   9
ATOM      9  C9  UNK d          25.141  30.817  27.495  0.00  0.00    -0.023 A 
ATOM     10  C10 UNK d          23.643  30.885  27.435  0.00  0.00     0.024 A 
ATOM     11  C11 UNK d          22.838  29.621  27.375  0.00  0.00     0.004 A 
ATOM     12  C12 UNK d          23.529  28.290  27.375  0.00  0.00     0.001 A 
ATOM     13  C13 UNK d          25.026  28.222  27.436  0.00  0.00     0.004 A 
ATOM     14  C14 UNK d          25.832  29.486  27.495  0.00  0.00     0.024 A 
ENDBRANCH   1   9
TORSDOF 4
ENDMDL
MODEL 6
REMARK VINA RESULT:      -1.4      0.552      1.592
REMARK  4 active torsions:
REMARK  status: ('A' for Active; 'I' for Inactive)
REMARK    1  A    between atoms: C2_2  and  C4_4 
REMARK    2  A    between atoms: C4_4  and  C6_6 
REMARK    3  A    between atoms: C6_6  and  C7_7 
REMARK    4  A    between atoms: C7_7  and  C9_9 
ROOT
ATOM      1  C7  UNK d          24.071  32.714  28.851  0.00  0.00     0.104 C 
ATOM      2  O8  UNK d          23.321  32.304  30.084  0.00  0.00    -0.195 OA
ENDROOT
BRANCH   1   3
ATOM      3  C6  UNK d          24.073  31.824  27.644  0.00  0.00     0.098 C 
BRANCH   3   4
ATOM      4  C4  UNK d          24.860  30.547  27.654  0.00  0.00     0.245 C 
ATOM      5  O5  UNK d          26.334  30.572  27.375  0.00  0.00    -0.211 OA
BRANCH   4   6
ATOM      6  C2  UNK d          24.173  29.245  27.944  0.00  0.00     0.218 C 
ATOM      7  O1  UNK d          24.945  27.961  27.883  0.00  0.00    -0.645 OA
ATOM      8  O3  UNK d          22.715  29.229  28.294  0.00  0.00    -0.645 OA
ENDBRANCH   4   6
ENDBRANCH   3   4
ENDBRANCH   1   3
BRANCH   1   9
ATOM      9  C9  UNK d          24.820  34.014  28.826  0.00  0.00    -0.023 A 
ATOM     10  C10 UNK d          24.513  35.075  29.841  0.00  0.00     0.024 A 
ATOM     11  C11 UNK d          25.261  36.375  29.816  0.00  0.00     0.004 A 
ATOM     12  C12 UNK d          26.316  36.613  28.777  0.00  0.00     0.001 A 
ATOM     13  C13 UNK d          26.623  35.552  27.762  0.00  0.00     0.004 A 
ATOM     14  C14 UNK d          25.874  34.252  27.787  0.00  0.00     0.024 A 
ENDBRANCH   1   9
TORSDOF 4
ENDMDL
MODEL 7
REMARK VINA RESULT:      -1.3      1.931      3.538
REMARK  4 active torsions:
REMARK  status: ('A' for Active; 'I' for Inactive)
REMARK    1  A    between atoms: C2_2  and  C4_4 
REMARK    2  A    between atoms: C4_4  and  C6_6 
REMARK    3  A    between atoms: C6_6  and  C7_7 
REMARK    4  A    between atoms: C7_7  and  C9_9 
ROOT
ATOM      1  C7  UNK d          25.823  32.739  27.572  0.00  0.00     0.104 C 
ATOM      2  O8  UNK d          26.345  31.339  27.447  0.00  0.00    -0.195 OA
ENDROOT
BRANCH   1   3
ATOM      3  C6  UNK d          24.351  32.980  27.731  0.00  0.00     0.098 C 
BRANCH   3   4
ATOM      4  C4  UNK d          23.762  33.144  29.100  0.00  0.00     0.245 C 
ATOM      5  O5  UNK d          23.538  34.517  29.661  0.00  0.00    -0.211 OA
BRANCH   4   6
ATOM      6  C2  UNK d          23.396  31.934  29.909  0.00  0.00     0.218 C 
ATOM      7  O1  UNK d          23.618  30.561  29.347  0.00  0.00    -0.645 OA
ATOM      8  O3  UNK d          22.808  32.098  31.279  0.00  0.00    -0.645 OA
ENDBRANCH   4   6
ENDBRANCH   3   4
ENDBRANCH   1   3
BRANCH   1   9
ATOM      9  C9  UNK d          26.773  33.900  27.538  0.00  0.00    -0.023 A 
ATOM     10  C10 UNK d          28.251  33.662  27.633  0.00  0.00     0.024 A 
ATOM     11  C11 UNK d          29.201  34.822  27.599  0.00  0.00     0.004 A 
ATOM     12  C12 UNK d          28.674  36.220  27.470  0.00  0.00     0.001 A 
ATOM     13  C13 UNK d          27.196  36.458  27.375  0.00  0.00     0.004 A 
ATOM     14  C14 UNK d          26.246  35.298  27.409  0.00  0.00     0.024 A 
ENDBRANCH   1   9
TORSDOF 4
ENDMDL
MODEL 8
REMARK VINA RESULT:      -1.3      2.578      5.788
REMARK  4 active torsions:
REMARK  status: ('A' for Active; 'I' for Inactive)
REMARK    1  A    between atoms: C2_2  and  C4_4 
REMARK    2  A    between atoms: C4_4  and  C6_6 
REMARK    3  A    between atoms: C6_6  and  C7_7 
REMARK    4  A    between atoms: C7_7  and  C9_9 
ROOT
ATOM      1  C7  UNK d          25.984  32.309  27.979  0.00  0.00     0.104 C 
ATOM      2  O8  UNK d          27.430  32.264  28.372  0.00  0.00    -0.195 OA
ENDROOT
BRANCH   1   3
ATOM      3  C6  UNK d          25.354  33.612  27.584  0.00  0.00     0.098 C 
BRANCH   3   4
ATOM      4  C4  UNK d          25.505  34.816  28.466  0.00  0.00     0.245 C 
ATOM      5  O5  UNK d          24.689  34.934  29.719  0.00  0.00    -0.211 OA
BRANCH   4   6
ATOM      6  C2  UNK d          26.472  35.901  28.095  0.00  0.00     0.218 C 
ATOM      7  O1  UNK d          26.016  37.330  28.053  0.00  0.00    -0.645 OA
ATOM      8  O3  UNK d          27.895  35.558  27.766  0.00  0.00    -0.645 OA
ENDBRANCH   4   6
ENDBRANCH   3   4
ENDBRANCH   1   3
BRANCH   1   9
ATOM      9  C9  UNK d          25.166  31.052  27.981  0.00  0.00    -0.023 A 
ATOM     10  C10 UNK d          25.721  29.797  28.588  0.00  0.00     0.024 A 
ATOM     11  C11 UNK d          24.903  28.540  28.590  0.00  0.00     0.004 A 
ATOM     12  C12 UNK d          23.530  28.537  27.985  0.00  0.00     0.001 A 
ATOM     13  C13 UNK d          22.975  29.791  27.378  0.00  0.00     0.004 A 
ATOM     14  C14 UNK d          23.793  31.049  27.376  0.00  0.00     0.024 A 
ENDBRANCH   1   9
TORSDOF 4
ENDMDL
MODEL 9
REMARK VINA RESULT:      -1.3      3.038      5.736
REMARK  4 active torsions:
REMARK  status: ('A' for Active; 'I' for Inactive)
REMARK    1  A    between atoms: C2_2  and  C4_4 
REMARK    2  A    between atoms: C4_4  and  C6_6 
REMARK    3  A    between atoms: C6_6  and  C7_7 
REMARK    4  A    between atoms: C7_7  and  C9_9 
ROOT
ATOM      1  C7  UNK d          27.523  33.641  27.817  0.00  0.00     0.104 C 
ATOM      2  O8  UNK d          28.910  33.231  28.216  0.00  0.00    -0.195 OA
ENDROOT
BRANCH   1   3
ATOM      3  C6  UNK d          27.249  35.057  27.405  0.00  0.00     0.098 C 
BRANCH   3   4
ATOM      4  C4  UNK d          26.905  36.086  28.441  0.00  0.00     0.245 C 
ATOM      5  O5  UNK d          26.595  37.494  28.026  0.00  0.00    -0.211 OA
BRANCH   4   6
ATOM      6  C2  UNK d          26.870  35.707  29.892  0.00  0.00     0.218 C 
ATOM      7  O1  UNK d          28.117  35.799  30.721  0.00  0.00    -0.645 OA
ATOM      8  O3  UNK d          25.589  35.236  30.514  0.00  0.00    -0.645 OA
ENDBRANCH   4   6
ENDBRANCH   3   4
ENDBRANCH   1   3
BRANCH   1   9
ATOM      9  C9  UNK d          26.411  32.635  27.829  0.00  0.00    -0.023 A 
ATOM     10  C10 UNK d          26.673  31.233  28.296  0.00  0.00     0.024 A 
ATOM     11  C11 UNK d          25.560  30.227  28.308  0.00  0.00     0.004 A 
ATOM     12  C12 UNK d          24.186  30.622  27.854  0.00  0.00     0.001 A 
ATOM     13  C13 UNK d          23.925  32.023  27.388  0.00  0.00     0.004 A 
ATOM     14  C14 UNK d          25.037  33.030  27.375  0.00  0.00     0.024 A 
ENDBRANCH   1   9
TORSDOF 4
ENDMDL
