MODEL 1
REMARK VINA RESULT:      -1.2      0.000      0.000
REMARK  7 active torsions:
REMARK  status: ('A' for Active; 'I' for Inactive)
REMARK    1  A    between atoms: C4_4  and  S5_5 
REMARK    2  A    between atoms: S5_5  and  C6_6 
REMARK    3  A    between atoms: C10_10  and  C11_11 
REMARK    4  A    between atoms: C10_10  and  C23_23 
REMARK    5  A    between atoms: C11_11  and  C12_12 
REMARK    6  A    between atoms: C12_12  and  C13_13 
REMARK    7  A    between atoms: C28_28  and  C32_32 
ROOT
ATOM      1  C6  UNK d          29.166  34.122  30.230  0.00  0.00     0.099 A 
ATOM      2  C7  UNK d          28.340  33.468  31.298  0.00  0.00     0.236 A 
ATOM      3  O8  UNK d          28.956  33.137  32.625  0.00  0.00    -0.163 OA
ATOM      4  O9  UNK d          26.898  33.145  31.038  0.00  0.00    -0.313 OA
ATOM      5  C10 UNK d          26.282  33.476  29.712  0.00  0.00     0.107 A 
ATOM      6  C20 UNK d          27.108  34.131  28.644  0.00  0.00     0.083 A 
ATOM      7  C21 UNK d          28.550  34.454  28.903  0.00  0.00     0.121 A 
ATOM      8  O22 UNK d          29.376  35.108  27.836  0.00  0.00    -0.194 OA
ENDROOT
BRANCH   5   9
ATOM      9  C11 UNK d          25.256  33.595  28.624  0.00  0.00     0.028 C 
BRANCH   9  10
ATOM     10  C12 UNK d          25.385  32.770  27.378  0.00  0.00     0.002 C 
BRANCH  10  11
ATOM     11  C13 UNK d          24.945  31.336  27.378  0.00  0.00     0.000 A 
ATOM     12  C14 UNK d          25.966  30.238  27.380  0.00  0.00     0.003 A 
ATOM     13  C15 UNK d          25.526  28.804  27.380  0.00  0.00     0.033 A 
ATOM     14  C16 UNK d          24.064  28.468  27.380  0.00  0.00     0.152 A 
ATOM     15  O17 UNK d          23.624  27.034  27.380  0.00  0.00    -0.224 OA
ATOM     16  C18 UNK d          23.042  29.566  27.378  0.00  0.00     0.033 A 
ATOM     17  C19 UNK d          23.482  31.000  27.378  0.00  0.00     0.003 A 
ENDBRANCH  10  11
ENDBRANCH   9  10
ENDBRANCH   5   9
BRANCH   5  18
ATOM     18  C23 UNK d          25.100  32.863  30.401  0.00  0.00     0.026 A 
ATOM     19  C24 UNK d          25.054  31.502  31.028  0.00  0.00     0.002 A 
ATOM     20  C25 UNK d          23.682  31.301  31.600  0.00  0.00     0.000 A 
ATOM     21  C26 UNK d          22.880  32.538  31.326  0.00  0.00     0.000 A 
ATOM     22  C27 UNK d          23.757  33.504  30.585  0.00  0.00     0.002 A 
ENDBRANCH   5  18
BRANCH   1  23
ATOM     23  S5  UNK d          30.607  34.445  30.489  0.00  0.00    -0.086 SA
BRANCH  23  24
ATOM     24  C4  UNK d          31.676  33.463  30.112  0.00  0.00     0.004 A 
ATOM     25  C3  UNK d          31.313  32.203  29.383  0.00  0.00     0.055 A 
ATOM     26  C2  UNK d          32.381  31.220  29.006  0.00  0.00    -0.030 A 
ATOM     27  C1  UNK d          32.018  29.961  28.277  0.00  0.00     0.028 C 
ATOM     28  C30 UNK d          33.813  31.497  29.357  0.00  0.00     0.044 A 
ATOM     29  C29 UNK d          34.176  32.757  30.086  0.00  0.00     0.062 A 
ATOM     30  N31 UNK d          34.881  30.514  28.980  0.00  0.00    -0.105 NA
ATOM     31  C28 UNK d          33.108  33.739  30.464  0.00  0.00    -0.037 A 
BRANCH  31  32
ATOM     32  C32 UNK d          33.471  34.999  31.192  0.00  0.00     0.016 C 
ATOM     33  C33 UNK d          33.302  34.289  32.503  0.00  0.00     0.004 C 
ATOM     34  C34 UNK d          33.640  35.709  29.882  0.00  0.00     0.004 C 
ATOM     35  C35 UNK d          33.834  36.259  31.921  0.00  0.00     0.004 C 
ENDBRANCH  31  32
ENDBRANCH  23  24
ENDBRANCH   1  23
TORSDOF 7
ENDMDL
MODEL 2
REMARK VINA RESULT:      -1.2      3.582      9.154
REMARK  7 active torsions:
REMARK  status: ('A' for Active; 'I' for Inactive)
REMARK    1  A    between atoms: C4_4  and  S5_5 
REMARK    2  A    between atoms: S5_5  and  C6_6 
REMARK    3  A    between atoms: C10_10  and  C11_11 
REMARK    4  A    between atoms: C10_10  and  C23_23 
REMARK    5  A    between atoms: C11_11  and  C12_12 
REMARK    6  A    between atoms: C12_12  and  C13_13 
REMARK    7  A    between atoms: C28_28  and  C32_32 
ROOT
ATOM      1  C6  UNK d          28.171  32.465  29.503  0.00  0.00     0.099 A 
ATOM      2  C7  UNK d          29.281  33.133  28.747  0.00  0.00     0.236 A 
ATOM      3  O8  UNK d          29.027  33.685  27.375  0.00  0.00    -0.163 OA
ATOM      4  O9  UNK d          30.644  33.247  29.361  0.00  0.00    -0.313 OA
ATOM      5  C10 UNK d          30.898  32.695  30.733  0.00  0.00     0.107 A 
ATOM      6  C20 UNK d          29.788  32.028  31.489  0.00  0.00     0.083 A 
ATOM      7  C21 UNK d          28.424  31.913  30.874  0.00  0.00     0.121 A 
ATOM      8  O22 UNK d          27.314  31.245  31.631  0.00  0.00    -0.194 OA
ENDROOT
BRANCH   5   9
ATOM      9  C11 UNK d          31.624  32.330  31.993  0.00  0.00     0.028 C 
BRANCH   9  10
ATOM     10  C12 UNK d          31.958  30.896  32.278  0.00  0.00     0.002 C 
BRANCH  10  11
ATOM     11  C13 UNK d          33.284  30.336  31.855  0.00  0.00     0.000 A 
ATOM     12  C14 UNK d          33.339  29.136  30.957  0.00  0.00     0.003 A 
ATOM     13  C15 UNK d          34.665  28.576  30.534  0.00  0.00     0.033 A 
ATOM     14  C16 UNK d          35.936  29.217  31.008  0.00  0.00     0.152 A 
ATOM     15  O17 UNK d          37.261  28.657  30.585  0.00  0.00    -0.224 OA
ATOM     16  C18 UNK d          35.881  30.417  31.906  0.00  0.00     0.033 A 
ATOM     17  C19 UNK d          34.555  30.977  32.330  0.00  0.00     0.003 A 
ENDBRANCH  10  11
ENDBRANCH   9  10
ENDBRANCH   5   9
BRANCH   5  18
ATOM     18  C23 UNK d          32.260  33.236  30.414  0.00  0.00     0.026 A 
ATOM     19  C24 UNK d          33.110  32.847  29.242  0.00  0.00     0.002 A 
ATOM     20  C25 UNK d          34.387  33.631  29.315  0.00  0.00     0.000 A 
ATOM     21  C26 UNK d          34.325  34.504  30.533  0.00  0.00     0.000 A 
ATOM     22  C27 UNK d          33.010  34.260  31.212  0.00  0.00     0.002 A 
ENDBRANCH   5  18
BRANCH   1  23
ATOM     23  S5  UNK d          26.807  32.350  28.888  0.00  0.00    -0.086 SA
BRANCH  23  24
ATOM     24  C4  UNK d          25.731  33.325  29.264  0.00  0.00     0.004 A 
ATOM     25  C3  UNK d          26.094  34.720  29.679  0.00  0.00     0.055 A 
ATOM     26  C2  UNK d          25.017  35.694  30.055  0.00  0.00    -0.030 A 
ATOM     27  C1  UNK d          25.380  37.089  30.470  0.00  0.00     0.028 C 
ATOM     28  C30 UNK d          23.578  35.274  30.015  0.00  0.00     0.044 A 
ATOM     29  C29 UNK d          23.215  33.879  29.599  0.00  0.00     0.062 A 
ATOM     30  N31 UNK d          22.501  36.248  30.390  0.00  0.00    -0.105 NA
ATOM     31  C28 UNK d          24.291  32.904  29.224  0.00  0.00    -0.037 A 
BRANCH  31  32
ATOM     32  C32 UNK d          23.929  31.509  28.809  0.00  0.00     0.016 C 
ATOM     33  C33 UNK d          23.988  31.068  30.241  0.00  0.00     0.004 C 
ATOM     34  C34 UNK d          23.870  31.951  27.376  0.00  0.00     0.004 C 
ATOM     35  C35 UNK d          23.566  30.115  28.393  0.00  0.00     0.004 C 
ENDBRANCH  31  32
ENDBRANCH  23  24
ENDBRANCH   1  23
TORSDOF 7
ENDMDL
MODEL 3
REMARK VINA RESULT:      -1.2      2.726      4.729
REMARK  7 active torsions:
REMARK  status: ('A' for Active; 'I' for Inactive)
REMARK    1  A    between atoms: C4_4  and  S5_5 
REMARK    2  A    between atoms: S5_5  and  C6_6 
REMARK    3  A    between atoms: C10_10  and  C11_11 
REMARK    4  A    between atoms: C10_10  and  C23_23 
REMARK    5  A    between atoms: C11_11  and  C12_12 
REMARK    6  A    between atoms: C12_12  and  C13_13 
REMARK    7  A    between atoms: C28_28  and  C32_32 
ROOT
ATOM      1  C6  UNK d          29.553  29.553  29.565  0.00  0.00     0.099 A 
ATOM      2  C7  UNK d          28.417  29.119  30.442  0.00  0.00     0.236 A 
ATOM      3  O8  UNK d          28.696  28.413  31.736  0.00  0.00    -0.163 OA
ATOM      4  O9  UNK d          27.001  29.390  30.026  0.00  0.00    -0.313 OA
ATOM      5  C10 UNK d          26.722  30.095  28.732  0.00  0.00     0.107 A 
ATOM      6  C20 UNK d          27.858  30.530  27.855  0.00  0.00     0.083 A 
ATOM      7  C21 UNK d          29.274  30.259  28.271  0.00  0.00     0.121 A 
ATOM      8  O22 UNK d          30.410  30.693  27.393  0.00  0.00    -0.194 OA
ENDROOT
BRANCH   5   9
ATOM      9  C11 UNK d          25.956  30.726  27.607  0.00  0.00     0.028 C 
BRANCH   9  10
ATOM     10  C12 UNK d          26.018  32.210  27.397  0.00  0.00     0.002 C 
BRANCH  10  11
ATOM     11  C13 UNK d          25.244  33.128  28.295  0.00  0.00     0.000 A 
ATOM     12  C14 UNK d          23.748  33.034  28.354  0.00  0.00     0.003 A 
ATOM     13  C15 UNK d          22.974  33.953  29.253  0.00  0.00     0.033 A 
ATOM     14  C16 UNK d          23.695  34.966  30.092  0.00  0.00     0.152 A 
ATOM     15  O17 UNK d          22.921  35.884  30.990  0.00  0.00    -0.224 OA
ATOM     16  C18 UNK d          25.192  35.060  30.033  0.00  0.00     0.033 A 
ATOM     17  C19 UNK d          25.966  34.141  29.135  0.00  0.00     0.003 A 
ENDBRANCH  10  11
ENDBRANCH   9  10
ENDBRANCH   5   9
BRANCH   5  18
ATOM     18  C23 UNK d          25.320  29.880  29.219  0.00  0.00     0.026 A 
ATOM     19  C24 UNK d          24.783  30.274  30.563  0.00  0.00     0.002 A 
ATOM     20  C25 UNK d          23.340  29.871  30.622  0.00  0.00     0.000 A 
ATOM     21  C26 UNK d          22.985  29.227  29.314  0.00  0.00     0.000 A 
ATOM     22  C27 UNK d          24.209  29.233  28.447  0.00  0.00     0.002 A 
ENDBRANCH   5  18
BRANCH   1  23
ATOM     23  S5  UNK d          30.968  29.282  29.981  0.00  0.00    -0.086 SA
BRANCH  23  24
ATOM     24  C4  UNK d          31.778  30.363  30.634  0.00  0.00     0.004 A 
ATOM     25  C3  UNK d          31.090  31.515  31.303  0.00  0.00     0.055 A 
ATOM     26  C2  UNK d          31.900  32.596  31.956  0.00  0.00    -0.030 A 
ATOM     27  C1  UNK d          31.211  33.749  32.625  0.00  0.00     0.028 C 
ATOM     28  C30 UNK d          33.398  32.525  31.939  0.00  0.00     0.044 A 
ATOM     29  C29 UNK d          34.086  31.372  31.269  0.00  0.00     0.062 A 
ATOM     30  N31 UNK d          34.208  33.605  32.591  0.00  0.00    -0.105 NA
ATOM     31  C28 UNK d          33.276  30.291  30.617  0.00  0.00    -0.037 A 
BRANCH  31  32
ATOM     32  C32 UNK d          33.964  29.139  29.947  0.00  0.00     0.016 C 
ATOM     33  C33 UNK d          33.982  28.393  31.249  0.00  0.00     0.004 C 
ATOM     34  C34 UNK d          33.947  29.884  28.646  0.00  0.00     0.004 C 
ATOM     35  C35 UNK d          34.653  27.986  29.278  0.00  0.00     0.004 C 
ENDBRANCH  31  32
ENDBRANCH  23  24
ENDBRANCH   1  23
TORSDOF 7
ENDMDL
MODEL 4
REMARK VINA RESULT:      -1.2      3.380      8.300
REMARK  7 active torsions:
REMARK  status: ('A' for Active; 'I' for Inactive)
REMARK    1  A    between atoms: C4_4  and  S5_5 
REMARK    2  A    between atoms: S5_5  and  C6_6 
REMARK    3  A    between atoms: C10_10  and  C11_11 
REMARK    4  A    between atoms: C10_10  and  C23_23 
REMARK    5  A    between atoms: C11_11  and  C12_12 
REMARK    6  A    between atoms: C12_12  and  C13_13 
REMARK    7  A    between atoms: C28_28  and  C32_32 
ROOT
ATOM      1  C6  UNK d          28.082  32.018  29.779  0.00  0.00     0.099 A 
ATOM      2  C7  UNK d          28.870  31.507  30.948  0.00  0.00     0.236 A 
ATOM      3  O8  UNK d          28.160  31.033  32.182  0.00  0.00    -0.163 OA
ATOM      4  O9  UNK d          30.368  31.470  30.884  0.00  0.00    -0.313 OA
ATOM      5  C10 UNK d          31.078  31.944  29.650  0.00  0.00     0.107 A 
ATOM      6  C20 UNK d          30.290  32.455  28.481  0.00  0.00     0.083 A 
ATOM      7  C21 UNK d          28.791  32.491  28.545  0.00  0.00     0.121 A 
ATOM      8  O22 UNK d          28.003  33.002  27.376  0.00  0.00    -0.194 OA
ENDROOT
BRANCH   5   9
ATOM      9  C11 UNK d          32.196  32.281  28.709  0.00  0.00     0.028 C 
BRANCH   9  10
ATOM     10  C12 UNK d          32.429  31.441  27.488  0.00  0.00     0.002 C 
BRANCH  10  11
ATOM     11  C13 UNK d          33.155  30.134  27.604  0.00  0.00     0.000 A 
ATOM     12  C14 UNK d          34.615  30.115  27.948  0.00  0.00     0.003 A 
ATOM     13  C15 UNK d          35.341  28.807  28.064  0.00  0.00     0.033 A 
ATOM     14  C16 UNK d          34.608  27.519  27.835  0.00  0.00     0.152 A 
ATOM     15  O17 UNK d          35.334  26.212  27.951  0.00  0.00    -0.224 OA
ATOM     16  C18 UNK d          33.148  27.538  27.491  0.00  0.00     0.033 A 
ATOM     17  C19 UNK d          32.421  28.845  27.375  0.00  0.00     0.003 A 
ENDBRANCH  10  11
ENDBRANCH   9  10
ENDBRANCH   5   9
BRANCH   5  18
ATOM     18  C23 UNK d          32.255  31.550  30.493  0.00  0.00     0.026 A 
ATOM     19  C24 UNK d          32.475  30.210  31.128  0.00  0.00     0.002 A 
ATOM     20  C25 UNK d          33.774  30.259  31.876  0.00  0.00     0.000 A 
ATOM     21  C26 UNK d          34.357  31.630  31.702  0.00  0.00     0.000 A 
ATOM     22  C27 UNK d          33.418  32.428  30.847  0.00  0.00     0.002 A 
ENDBRANCH   5  18
BRANCH   1  23
ATOM     23  S5  UNK d          26.583  32.055  29.843  0.00  0.00    -0.086 SA
BRANCH  23  24
ATOM     24  C4  UNK d          25.779  30.949  29.227  0.00  0.00     0.004 A 
ATOM     25  C3  UNK d          26.413  29.614  28.968  0.00  0.00     0.055 A 
ATOM     26  C2  UNK d          25.609  28.508  28.352  0.00  0.00    -0.030 A 
ATOM     27  C1  UNK d          26.243  27.174  28.093  0.00  0.00     0.028 C 
ATOM     28  C30 UNK d          24.170  28.737  27.995  0.00  0.00     0.044 A 
ATOM     29  C29 UNK d          23.536  30.071  28.254  0.00  0.00     0.062 A 
ATOM     30  N31 UNK d          23.365  27.631  27.379  0.00  0.00    -0.105 NA
ATOM     31  C28 UNK d          24.340  31.177  28.870  0.00  0.00    -0.037 A 
BRANCH  31  32
ATOM     32  C32 UNK d          23.706  32.511  29.129  0.00  0.00     0.016 C 
ATOM     33  C33 UNK d          24.160  32.989  27.781  0.00  0.00     0.004 C 
ATOM     34  C34 UNK d          23.252  32.034  30.476  0.00  0.00     0.004 C 
ATOM     35  C35 UNK d          23.071  33.846  29.388  0.00  0.00     0.004 C 
ENDBRANCH  31  32
ENDBRANCH  23  24
ENDBRANCH   1  23
TORSDOF 7
ENDMDL
MODEL 5
REMARK VINA RESULT:      -1.1      3.600      8.795
REMARK  7 active torsions:
REMARK  status: ('A' for Active; 'I' for Inactive)
REMARK    1  A    between atoms: C4_4  and  S5_5 
REMARK    2  A    between atoms: S5_5  and  C6_6 
REMARK    3  A    between atoms: C10_10  and  C11_11 
REMARK    4  A    between atoms: C10_10  and  C23_23 
REMARK    5  A    between atoms: C11_11  and  C12_12 
REMARK    6  A    between atoms: C12_12  and  C13_13 
REMARK    7  A    between atoms: C28_28  and  C32_32 
ROOT
ATOM      1  C6  UNK d          27.906  31.477  29.841  0.00  0.00     0.099 A 
ATOM      2  C7  UNK d          28.719  31.185  31.067  0.00  0.00     0.236 A 
ATOM      3  O8  UNK d          28.049  30.672  32.307  0.00  0.00    -0.163 OA
ATOM      4  O9  UNK d          30.203  31.406  31.053  0.00  0.00    -0.313 OA
ATOM      5  C10 UNK d          30.873  31.919  29.813  0.00  0.00     0.107 A 
ATOM      6  C20 UNK d          30.060  32.211  28.587  0.00  0.00     0.083 A 
ATOM      7  C21 UNK d          28.576  31.990  28.601  0.00  0.00     0.121 A 
ATOM      8  O22 UNK d          27.763  32.282  27.375  0.00  0.00    -0.194 OA
ENDROOT
BRANCH   5   9
ATOM      9  C11 UNK d          31.956  32.387  28.887  0.00  0.00     0.028 C 
BRANCH   9  10
ATOM     10  C12 UNK d          32.379  31.529  27.732  0.00  0.00     0.002 C 
BRANCH  10  11
ATOM     11  C13 UNK d          33.489  30.534  27.903  0.00  0.00     0.000 A 
ATOM     12  C14 UNK d          34.853  30.997  28.319  0.00  0.00     0.003 A 
ATOM     13  C15 UNK d          35.963  30.002  28.490  0.00  0.00     0.033 A 
ATOM     14  C16 UNK d          35.708  28.545  28.244  0.00  0.00     0.152 A 
ATOM     15  O17 UNK d          36.818  27.550  28.415  0.00  0.00    -0.224 OA
ATOM     16  C18 UNK d          34.343  28.082  27.827  0.00  0.00     0.033 A 
ATOM     17  C19 UNK d          33.234  29.076  27.657  0.00  0.00     0.003 A 
ENDBRANCH  10  11
ENDBRANCH   9  10
ENDBRANCH   5   9
BRANCH   5  18
ATOM     18  C23 UNK d          32.063  31.790  30.717  0.00  0.00     0.026 A 
ATOM     19  C24 UNK d          33.006  32.892  31.095  0.00  0.00     0.002 A 
ATOM     20  C25 UNK d          34.044  32.319  32.014  0.00  0.00     0.000 A 
ATOM     21  C26 UNK d          33.742  30.862  32.204  0.00  0.00     0.000 A 
ATOM     22  C27 UNK d          32.516  30.535  31.402  0.00  0.00     0.002 A 
ENDBRANCH   5  18
BRANCH   1  23
ATOM     23  S5  UNK d          26.422  31.256  29.855  0.00  0.00    -0.086 SA
BRANCH  23  24
ATOM     24  C4  UNK d          25.491  32.425  29.982  0.00  0.00     0.004 A 
ATOM     25  C3  UNK d          25.935  33.663  30.704  0.00  0.00     0.055 A 
ATOM     26  C2  UNK d          25.004  34.831  30.831  0.00  0.00    -0.030 A 
ATOM     27  C1  UNK d          25.448  36.069  31.552  0.00  0.00     0.028 C 
ATOM     28  C30 UNK d          23.628  34.763  30.236  0.00  0.00     0.044 A 
ATOM     29  C29 UNK d          23.185  33.525  29.514  0.00  0.00     0.062 A 
ATOM     30  N31 UNK d          22.697  35.932  30.363  0.00  0.00    -0.105 NA
ATOM     31  C28 UNK d          24.116  32.356  29.387  0.00  0.00    -0.037 A 
BRANCH  31  32
ATOM     32  C32 UNK d          23.672  31.119  28.665  0.00  0.00     0.016 C 
ATOM     33  C33 UNK d          23.159  30.550  29.955  0.00  0.00     0.004 C 
ATOM     34  C34 UNK d          24.185  31.687  27.375  0.00  0.00     0.004 C 
ATOM     35  C35 UNK d          23.228  29.881  27.943  0.00  0.00     0.004 C 
ENDBRANCH  31  32
ENDBRANCH  23  24
ENDBRANCH   1  23
TORSDOF 7
ENDMDL
MODEL 6
REMARK VINA RESULT:      -1.1      3.034      8.245
REMARK  7 active torsions:
REMARK  status: ('A' for Active; 'I' for Inactive)
REMARK    1  A    between atoms: C4_4  and  S5_5 
REMARK    2  A    between atoms: S5_5  and  C6_6 
REMARK    3  A    between atoms: C10_10  and  C11_11 
REMARK    4  A    between atoms: C10_10  and  C23_23 
REMARK    5  A    between atoms: C11_11  and  C12_12 
REMARK    6  A    between atoms: C12_12  and  C13_13 
REMARK    7  A    between atoms: C28_28  and  C32_32 
ROOT
ATOM      1  C6  UNK d          28.073  32.977  29.903  0.00  0.00     0.099 A 
ATOM      2  C7  UNK d          28.979  32.572  31.028  0.00  0.00     0.236 A 
ATOM      3  O8  UNK d          28.408  31.935  32.259  0.00  0.00    -0.163 OA
ATOM      4  O9  UNK d          30.457  32.805  30.921  0.00  0.00    -0.313 OA
ATOM      5  C10 UNK d          31.029  33.442  29.689  0.00  0.00     0.107 A 
ATOM      6  C20 UNK d          30.123  33.847  28.564  0.00  0.00     0.083 A 
ATOM      7  C21 UNK d          28.645  33.614  28.671  0.00  0.00     0.121 A 
ATOM      8  O22 UNK d          27.738  34.018  27.547  0.00  0.00    -0.194 OA
ENDROOT
BRANCH   5   9
ATOM      9  C11 UNK d          32.037  34.007  28.733  0.00  0.00     0.028 C 
BRANCH   9  10
ATOM     10  C12 UNK d          32.392  33.253  27.485  0.00  0.00     0.002 C 
BRANCH  10  11
ATOM     11  C13 UNK d          33.333  32.087  27.554  0.00  0.00     0.000 A 
ATOM     12  C14 UNK d          32.812  30.692  27.381  0.00  0.00     0.003 A 
ATOM     13  C15 UNK d          33.755  29.526  27.451  0.00  0.00     0.033 A 
ATOM     14  C16 UNK d          35.216  29.756  27.694  0.00  0.00     0.152 A 
ATOM     15  O17 UNK d          36.158  28.590  27.764  0.00  0.00    -0.224 OA
ATOM     16  C18 UNK d          35.737  31.153  27.867  0.00  0.00     0.033 A 
ATOM     17  C19 UNK d          34.796  32.318  27.798  0.00  0.00     0.003 A 
ENDBRANCH  10  11
ENDBRANCH   9  10
ENDBRANCH   5   9
BRANCH   5  18
ATOM     18  C23 UNK d          32.285  33.234  30.481  0.00  0.00     0.026 A 
ATOM     19  C24 UNK d          33.291  34.289  30.832  0.00  0.00     0.002 A 
ATOM     20  C25 UNK d          34.384  33.641  31.630  0.00  0.00     0.000 A 
ATOM     21  C26 UNK d          34.053  32.185  31.771  0.00  0.00     0.000 A 
ATOM     22  C27 UNK d          32.756  31.933  31.061  0.00  0.00     0.002 A 
ENDBRANCH   5  18
BRANCH   1  23
ATOM     23  S5  UNK d          26.595  32.744  30.010  0.00  0.00    -0.086 SA
BRANCH  23  24
ATOM     24  C4  UNK d          25.975  31.547  29.353  0.00  0.00     0.004 A 
ATOM     25  C3  UNK d          26.813  30.342  29.046  0.00  0.00     0.055 A 
ATOM     26  C2  UNK d          26.193  29.144  28.389  0.00  0.00    -0.030 A 
ATOM     27  C1  UNK d          27.031  27.939  28.081  0.00  0.00     0.028 C 
ATOM     28  C30 UNK d          24.734  29.152  28.039  0.00  0.00     0.044 A 
ATOM     29  C29 UNK d          23.896  30.357  28.347  0.00  0.00     0.062 A 
ATOM     30  N31 UNK d          24.114  27.955  27.383  0.00  0.00    -0.105 NA
ATOM     31  C28 UNK d          24.516  31.554  29.004  0.00  0.00    -0.037 A 
BRANCH  31  32
ATOM     32  C32 UNK d          23.677  32.760  29.312  0.00  0.00     0.016 C 
ATOM     33  C33 UNK d          23.286  32.152  30.626  0.00  0.00     0.004 C 
ATOM     34  C34 UNK d          24.068  33.367  27.998  0.00  0.00     0.004 C 
ATOM     35  C35 UNK d          22.839  33.965  29.620  0.00  0.00     0.004 C 
ENDBRANCH  31  32
ENDBRANCH  23  24
ENDBRANCH   1  23
TORSDOF 7
ENDMDL
MODEL 7
REMARK VINA RESULT:      -1.0      3.774      8.423
REMARK  7 active torsions:
REMARK  status: ('A' for Active; 'I' for Inactive)
REMARK    1  A    between atoms: C4_4  and  S5_5 
REMARK    2  A    between atoms: S5_5  and  C6_6 
REMARK    3  A    between atoms: C10_10  and  C11_11 
REMARK    4  A    between atoms: C10_10  and  C23_23 
REMARK    5  A    between atoms: C11_11  and  C12_12 
REMARK    6  A    between atoms: C12_12  and  C13_13 
REMARK    7  A    between atoms: C28_28  and  C32_32 
ROOT
ATOM      1  C6  UNK d          26.870  30.860  29.944  0.00  0.00     0.099 A 
ATOM      2  C7  UNK d          27.171  29.903  28.829  0.00  0.00     0.236 A 
ATOM      3  O8  UNK d          26.319  29.899  27.594  0.00  0.00    -0.163 OA
ATOM      4  O9  UNK d          28.324  28.951  28.948  0.00  0.00    -0.313 OA
ATOM      5  C10 UNK d          29.176  28.956  30.182  0.00  0.00     0.107 A 
ATOM      6  C20 UNK d          28.875  29.912  31.298  0.00  0.00     0.083 A 
ATOM      7  C21 UNK d          27.722  30.864  31.179  0.00  0.00     0.121 A 
ATOM      8  O22 UNK d          27.422  31.821  32.294  0.00  0.00    -0.194 OA
ENDROOT
BRANCH   5   9
ATOM      9  C11 UNK d          30.264  28.583  31.145  0.00  0.00     0.028 C 
BRANCH   9  10
ATOM     10  C12 UNK d          31.421  29.512  31.367  0.00  0.00     0.002 C 
BRANCH  10  11
ATOM     11  C13 UNK d          32.766  29.186  30.791  0.00  0.00     0.000 A 
ATOM     12  C14 UNK d          33.583  30.260  30.137  0.00  0.00     0.003 A 
ATOM     13  C15 UNK d          34.929  29.933  29.561  0.00  0.00     0.033 A 
ATOM     14  C16 UNK d          35.458  28.531  29.639  0.00  0.00     0.152 A 
ATOM     15  O17 UNK d          36.804  28.205  29.063  0.00  0.00    -0.224 OA
ATOM     16  C18 UNK d          34.641  27.456  30.292  0.00  0.00     0.033 A 
ATOM     17  C19 UNK d          33.295  27.783  30.868  0.00  0.00     0.003 A 
ENDBRANCH  10  11
ENDBRANCH   9  10
ENDBRANCH   5   9
BRANCH   5  18
ATOM     18  C23 UNK d          29.854  27.870  29.401  0.00  0.00     0.026 A 
ATOM     19  C24 UNK d          30.568  28.039  28.093  0.00  0.00     0.002 A 
ATOM     20  C25 UNK d          31.093  26.698  27.675  0.00  0.00     0.000 A 
ATOM     21  C26 UNK d          30.704  25.700  28.724  0.00  0.00     0.000 A 
ATOM     22  C27 UNK d          29.938  26.424  29.792  0.00  0.00     0.002 A 
ENDBRANCH   5  18
BRANCH   1  23
ATOM     23  S5  UNK d          25.717  31.812  29.826  0.00  0.00    -0.086 SA
BRANCH  23  24
ATOM     24  C4  UNK d          25.958  33.233  29.411  0.00  0.00     0.004 A 
ATOM     25  C3  UNK d          27.176  33.584  28.608  0.00  0.00     0.055 A 
ATOM     26  C2  UNK d          27.416  35.006  28.193  0.00  0.00    -0.030 A 
ATOM     27  C1  UNK d          28.634  35.356  27.391  0.00  0.00     0.028 C 
ATOM     28  C30 UNK d          26.439  36.076  28.581  0.00  0.00     0.044 A 
ATOM     29  C29 UNK d          25.222  35.725  29.383  0.00  0.00     0.062 A 
ATOM     30  N31 UNK d          26.680  37.497  28.166  0.00  0.00    -0.105 NA
ATOM     31  C28 UNK d          24.981  34.304  29.798  0.00  0.00    -0.037 A 
BRANCH  31  32
ATOM     32  C32 UNK d          23.763  33.953  30.601  0.00  0.00     0.016 C 
ATOM     33  C33 UNK d          24.546  34.132  31.867  0.00  0.00     0.004 C 
ATOM     34  C34 UNK d          22.980  33.774  29.334  0.00  0.00     0.004 C 
ATOM     35  C35 UNK d          22.546  33.602  31.403  0.00  0.00     0.004 C 
ENDBRANCH  31  32
ENDBRANCH  23  24
ENDBRANCH   1  23
TORSDOF 7
ENDMDL
MODEL 8
REMARK VINA RESULT:      -1.0      3.293      5.701
REMARK  7 active torsions:
REMARK  status: ('A' for Active; 'I' for Inactive)
REMARK    1  A    between atoms: C4_4  and  S5_5 
REMARK    2  A    between atoms: S5_5  and  C6_6 
REMARK    3  A    between atoms: C10_10  and  C11_11 
REMARK    4  A    between atoms: C10_10  and  C23_23 
REMARK    5  A    between atoms: C11_11  and  C12_12 
REMARK    6  A    between atoms: C12_12  and  C13_13 
REMARK    7  A    between atoms: C28_28  and  C32_32 
ROOT
ATOM      1  C6  UNK d          25.896  32.095  29.871  0.00  0.00     0.099 A 
ATOM      2  C7  UNK d          25.255  31.375  28.722  0.00  0.00     0.236 A 
ATOM      3  O8  UNK d          25.072  32.074  27.407  0.00  0.00    -0.163 OA
ATOM      4  O9  UNK d          24.797  29.956  28.887  0.00  0.00    -0.313 OA
ATOM      5  C10 UNK d          24.980  29.257  30.201  0.00  0.00     0.107 A 
ATOM      6  C20 UNK d          25.621  29.977  31.351  0.00  0.00     0.083 A 
ATOM      7  C21 UNK d          26.079  31.396  31.185  0.00  0.00     0.121 A 
ATOM      8  O22 UNK d          26.720  32.115  32.335  0.00  0.00    -0.194 OA
ENDROOT
BRANCH   5   9
ATOM      9  C11 UNK d          24.935  28.178  31.242  0.00  0.00     0.028 C 
BRANCH   9  10
ATOM     10  C12 UNK d          26.207  27.539  31.716  0.00  0.00     0.002 C 
BRANCH  10  11
ATOM     11  C13 UNK d          26.908  26.533  30.851  0.00  0.00     0.000 A 
ATOM     12  C14 UNK d          26.323  25.164  30.669  0.00  0.00     0.003 A 
ATOM     13  C15 UNK d          27.025  24.158  29.805  0.00  0.00     0.033 A 
ATOM     14  C16 UNK d          28.311  24.522  29.123  0.00  0.00     0.152 A 
ATOM     15  O17 UNK d          29.012  23.516  28.258  0.00  0.00    -0.224 OA
ATOM     16  C18 UNK d          28.895  25.892  29.305  0.00  0.00     0.033 A 
ATOM     17  C19 UNK d          28.194  26.897  30.169  0.00  0.00     0.003 A 
ENDBRANCH  10  11
ENDBRANCH   9  10
ENDBRANCH   5   9
BRANCH   5  18
ATOM     18  C23 UNK d          24.323  28.163  29.414  0.00  0.00     0.026 A 
ATOM     19  C24 UNK d          24.835  27.566  28.137  0.00  0.00     0.002 A 
ATOM     20  C25 UNK d          23.867  26.508  27.699  0.00  0.00     0.000 A 
ATOM     21  C26 UNK d          22.757  26.450  28.705  0.00  0.00     0.000 A 
ATOM     22  C27 UNK d          23.039  27.473  29.765  0.00  0.00     0.002 A 
ENDBRANCH   5  18
BRANCH   1  23
ATOM     23  S5  UNK d          26.354  33.513  29.706  0.00  0.00    -0.086 SA
BRANCH  23  24
ATOM     24  C4  UNK d          27.718  33.801  29.150  0.00  0.00     0.004 A 
ATOM     25  C3  UNK d          28.734  32.702  29.049  0.00  0.00     0.055 A 
ATOM     26  C2  UNK d          30.097  32.990  28.493  0.00  0.00    -0.030 A 
ATOM     27  C1  UNK d          31.113  31.891  28.392  0.00  0.00     0.028 C 
ATOM     28  C30 UNK d          30.444  34.377  28.039  0.00  0.00     0.044 A 
ATOM     29  C29 UNK d          29.428  35.476  28.140  0.00  0.00     0.062 A 
ATOM     30  N31 UNK d          31.807  34.665  27.484  0.00  0.00    -0.105 NA
ATOM     31  C28 UNK d          28.065  35.188  28.696  0.00  0.00    -0.037 A 
BRANCH  31  32
ATOM     32  C32 UNK d          27.049  36.287  28.797  0.00  0.00     0.016 C 
ATOM     33  C33 UNK d          26.550  35.952  27.423  0.00  0.00     0.004 C 
ATOM     34  C34 UNK d          27.548  36.622  30.172  0.00  0.00     0.004 C 
ATOM     35  C35 UNK d          26.033  37.386  28.899  0.00  0.00     0.004 C 
ENDBRANCH  31  32
ENDBRANCH  23  24
ENDBRANCH   1  23
TORSDOF 7
ENDMDL
MODEL 9
REMARK VINA RESULT:      -1.0      3.267      8.757
REMARK  7 active torsions:
REMARK  status: ('A' for Active; 'I' for Inactive)
REMARK    1  A    between atoms: C4_4  and  S5_5 
REMARK    2  A    between atoms: S5_5  and  C6_6 
REMARK    3  A    between atoms: C10_10  and  C11_11 
REMARK    4  A    between atoms: C10_10  and  C23_23 
REMARK    5  A    between atoms: C11_11  and  C12_12 
REMARK    6  A    between atoms: C12_12  and  C13_13 
REMARK    7  A    between atoms: C28_28  and  C32_32 
ROOT
ATOM      1  C6  UNK d          27.782  32.580  30.411  0.00  0.00     0.099 A 
ATOM      2  C7  UNK d          28.364  33.344  29.258  0.00  0.00     0.236 A 
ATOM      3  O8  UNK d          27.462  33.911  28.202  0.00  0.00    -0.163 OA
ATOM      4  O9  UNK d          29.848  33.541  29.162  0.00  0.00    -0.313 OA
ATOM      5  C10 UNK d          30.750  32.975  30.218  0.00  0.00     0.107 A 
ATOM      6  C20 UNK d          30.168  32.211  31.370  0.00  0.00     0.083 A 
ATOM      7  C21 UNK d          28.685  32.014  31.467  0.00  0.00     0.121 A 
ATOM      8  O22 UNK d          28.103  31.250  32.619  0.00  0.00    -0.194 OA
ENDROOT
BRANCH   5   9
ATOM      9  C11 UNK d          32.006  32.632  30.963  0.00  0.00     0.028 C 
BRANCH   9  10
ATOM     10  C12 UNK d          32.352  31.197  31.231  0.00  0.00     0.002 C 
BRANCH  10  11
ATOM     11  C13 UNK d          33.638  30.627  30.713  0.00  0.00     0.000 A 
ATOM     12  C14 UNK d          33.945  29.172  30.907  0.00  0.00     0.003 A 
ATOM     13  C15 UNK d          35.233  28.602  30.389  0.00  0.00     0.033 A 
ATOM     14  C16 UNK d          36.213  29.486  29.677  0.00  0.00     0.152 A 
ATOM     15  O17 UNK d          37.500  28.915  29.159  0.00  0.00    -0.224 OA
ATOM     16  C18 UNK d          35.906  30.942  29.483  0.00  0.00     0.033 A 
ATOM     17  C19 UNK d          34.619  31.512  30.001  0.00  0.00     0.003 A 
ENDBRANCH  10  11
ENDBRANCH   9  10
ENDBRANCH   5   9
BRANCH   5  18
ATOM     18  C23 UNK d          31.768  33.620  29.324  0.00  0.00     0.026 A 
ATOM     19  C24 UNK d          32.095  33.208  27.920  0.00  0.00     0.002 A 
ATOM     20  C25 UNK d          33.166  34.123  27.406  0.00  0.00     0.000 A 
ATOM     21  C26 UNK d          33.502  35.100  28.493  0.00  0.00     0.000 A 
ATOM     22  C27 UNK d          32.637  34.789  29.679  0.00  0.00     0.002 A 
ENDBRANCH   5  18
BRANCH   1  23
ATOM     23  S5  UNK d          26.299  32.383  30.507  0.00  0.00    -0.086 SA
BRANCH  23  24
ATOM     24  C4  UNK d          25.641  31.260  29.762  0.00  0.00     0.004 A 
ATOM     25  C3  UNK d          26.376  29.969  29.549  0.00  0.00     0.055 A 
ATOM     26  C2  UNK d          25.719  28.846  28.804  0.00  0.00    -0.030 A 
ATOM     27  C1  UNK d          26.454  27.556  28.591  0.00  0.00     0.028 C 
ATOM     28  C30 UNK d          24.327  29.012  28.271  0.00  0.00     0.044 A 
ATOM     29  C29 UNK d          23.592  30.303  28.484  0.00  0.00     0.062 A 
ATOM     30  N31 UNK d          23.670  27.889  27.526  0.00  0.00    -0.105 NA
ATOM     31  C28 UNK d          24.249  31.426  29.229  0.00  0.00    -0.037 A 
BRANCH  31  32
ATOM     32  C32 UNK d          23.514  32.716  29.442  0.00  0.00     0.016 C 
ATOM     33  C33 UNK d          23.015  32.214  30.764  0.00  0.00     0.004 C 
ATOM     34  C34 UNK d          24.013  33.218  28.119  0.00  0.00     0.004 C 
ATOM     35  C35 UNK d          22.779  34.006  29.654  0.00  0.00     0.004 C 
ENDBRANCH  31  32
ENDBRANCH  23  24
ENDBRANCH   1  23
TORSDOF 7
ENDMDL
