MODEL 1
REMARK VINA RESULT:      -1.5      0.000      0.000
REMARK  4 active torsions:
REMARK  status: ('A' for Active; 'I' for Inactive)
REMARK    1  A    between atoms: C2_2  and  C4_4 
REMARK    2  A    between atoms: C4_4  and  C6_6 
REMARK    3  A    between atoms: C6_6  and  C7_7 
REMARK    4  A    between atoms: C7_7  and  C9_9 
ROOT
ATOM      1  C7  UNK d          25.365  32.673  27.737  0.00  0.00     0.104 C 
ATOM      2  O8  UNK d          26.619  31.862  27.594  0.00  0.00    -0.195 OA
ENDROOT
BRANCH   1   3
ATOM      3  C6  UNK d          24.031  32.049  27.449  0.00  0.00     0.098 C 
BRANCH   3   4
ATOM      4  C4  UNK d          23.635  30.776  28.135  0.00  0.00     0.245 C 
ATOM      5  O5  UNK d          22.880  29.721  27.380  0.00  0.00    -0.211 OA
BRANCH   4   6
ATOM      6  C2  UNK d          23.993  30.556  29.575  0.00  0.00     0.218 C 
ATOM      7  O1  UNK d          23.445  31.469  30.631  0.00  0.00    -0.645 OA
ATOM      8  O3  UNK d          24.899  29.424  29.958  0.00  0.00    -0.645 OA
ENDBRANCH   4   6
ENDBRANCH   3   4
ENDBRANCH   1   3
BRANCH   1   9
ATOM      9  C9  UNK d          25.444  34.107  28.169  0.00  0.00    -0.023 A 
ATOM     10  C10 UNK d          26.259  35.085  27.376  0.00  0.00     0.024 A 
ATOM     11  C11 UNK d          26.338  36.520  27.808  0.00  0.00     0.004 A 
ATOM     12  C12 UNK d          25.603  36.976  29.033  0.00  0.00     0.001 A 
ATOM     13  C13 UNK d          24.788  35.998  29.826  0.00  0.00     0.004 A 
ATOM     14  C14 UNK d          24.708  34.564  29.394  0.00  0.00     0.024 A 
ENDBRANCH   1   9
TORSDOF 4
ENDMDL
MODEL 2
REMARK VINA RESULT:      -1.4      2.611      5.133
REMARK  4 active torsions:
REMARK  status: ('A' for Active; 'I' for Inactive)
REMARK    1  A    between atoms: C2_2  and  C4_4 
REMARK    2  A    between atoms: C4_4  and  C6_6 
REMARK    3  A    between atoms: C6_6  and  C7_7 
REMARK    4  A    between atoms: C7_7  and  C9_9 
ROOT
ATOM      1  C7  UNK d          26.760  33.385  28.202  0.00  0.00     0.104 C 
ATOM      2  O8  UNK d          28.040  33.284  28.978  0.00  0.00    -0.195 OA
ENDROOT
BRANCH   1   3
ATOM      3  C6  UNK d          26.432  34.644  27.456  0.00  0.00     0.098 C 
BRANCH   3   4
ATOM      4  C4  UNK d          25.974  35.861  28.203  0.00  0.00     0.245 C 
ATOM      5  O5  UNK d          26.054  37.212  27.557  0.00  0.00    -0.211 OA
BRANCH   4   6
ATOM      6  C2  UNK d          25.436  35.727  29.597  0.00  0.00     0.218 C 
ATOM      7  O1  UNK d          24.043  35.216  29.817  0.00  0.00    -0.645 OA
ATOM      8  O3  UNK d          26.291  36.104  30.771  0.00  0.00    -0.645 OA
ENDBRANCH   4   6
ENDBRANCH   3   4
ENDBRANCH   1   3
BRANCH   1   9
ATOM      9  C9  UNK d          25.808  32.226  28.173  0.00  0.00    -0.023 A 
ATOM     10  C10 UNK d          24.524  32.329  27.405  0.00  0.00     0.024 A 
ATOM     11  C11 UNK d          23.572  31.171  27.376  0.00  0.00     0.004 A 
ATOM     12  C12 UNK d          23.904  29.908  28.114  0.00  0.00     0.001 A 
ATOM     13  C13 UNK d          25.189  29.804  28.882  0.00  0.00     0.004 A 
ATOM     14  C14 UNK d          26.141  30.963  28.911  0.00  0.00     0.024 A 
ENDBRANCH   1   9
TORSDOF 4
ENDMDL
MODEL 3
REMARK VINA RESULT:      -1.4      2.306      5.337
REMARK  4 active torsions:
REMARK  status: ('A' for Active; 'I' for Inactive)
REMARK    1  A    between atoms: C2_2  and  C4_4 
REMARK    2  A    between atoms: C4_4  and  C6_6 
REMARK    3  A    between atoms: C6_6  and  C7_7 
REMARK    4  A    between atoms: C7_7  and  C9_9 
ROOT
ATOM      1  C7  UNK d          25.931  32.020  27.603  0.00  0.00     0.104 C 
ATOM      2  O8  UNK d          27.403  31.978  27.888  0.00  0.00    -0.195 OA
ENDROOT
BRANCH   1   3
ATOM      3  C6  UNK d          25.245  33.337  27.395  0.00  0.00     0.098 C 
BRANCH   3   4
ATOM      4  C4  UNK d          25.276  34.379  28.474  0.00  0.00     0.245 C 
ATOM      5  O5  UNK d          26.321  35.455  28.448  0.00  0.00    -0.211 OA
BRANCH   4   6
ATOM      6  C2  UNK d          24.263  34.344  29.580  0.00  0.00     0.218 C 
ATOM      7  O1  UNK d          24.664  34.716  30.976  0.00  0.00    -0.645 OA
ATOM      8  O3  UNK d          22.849  33.937  29.289  0.00  0.00    -0.645 OA
ENDBRANCH   4   6
ENDBRANCH   3   4
ENDBRANCH   1   3
BRANCH   1   9
ATOM      9  C9  UNK d          25.145  30.745  27.528  0.00  0.00    -0.023 A 
ATOM     10  C10 UNK d          23.648  30.790  27.453  0.00  0.00     0.024 A 
ATOM     11  C11 UNK d          22.862  29.514  27.377  0.00  0.00     0.004 A 
ATOM     12  C12 UNK d          23.574  28.194  27.376  0.00  0.00     0.001 A 
ATOM     13  C13 UNK d          25.071  28.149  27.451  0.00  0.00     0.004 A 
ATOM     14  C14 UNK d          25.857  29.424  27.527  0.00  0.00     0.024 A 
ENDBRANCH   1   9
TORSDOF 4
ENDMDL
MODEL 4
REMARK VINA RESULT:      -1.4      2.386      5.449
REMARK  4 active torsions:
REMARK  status: ('A' for Active; 'I' for Inactive)
REMARK    1  A    between atoms: C2_2  and  C4_4 
REMARK    2  A    between atoms: C4_4  and  C6_6 
REMARK    3  A    between atoms: C6_6  and  C7_7 
REMARK    4  A    between atoms: C7_7  and  C9_9 
ROOT
ATOM      1  C7  UNK d          24.000  33.056  28.419  0.00  0.00     0.104 C 
ATOM      2  O8  UNK d          23.328  34.067  29.300  0.00  0.00    -0.195 OA
ENDROOT
BRANCH   1   3
ATOM      3  C6  UNK d          24.979  33.503  27.375  0.00  0.00     0.098 C 
BRANCH   3   4
ATOM      4  C4  UNK d          26.414  33.737  27.744  0.00  0.00     0.245 C 
ATOM      5  O5  UNK d          27.388  32.596  27.730  0.00  0.00    -0.211 OA
BRANCH   4   6
ATOM      6  C2  UNK d          26.876  35.111  28.128  0.00  0.00     0.218 C 
ATOM      7  O1  UNK d          25.872  36.189  28.410  0.00  0.00    -0.645 OA
ATOM      8  O3  UNK d          28.343  35.409  28.229  0.00  0.00    -0.645 OA
ENDBRANCH   4   6
ENDBRANCH   3   4
ENDBRANCH   1   3
BRANCH   1   9
ATOM      9  C9  UNK d          23.693  31.597  28.583  0.00  0.00    -0.023 A 
ATOM     10  C10 UNK d          23.643  30.701  27.381  0.00  0.00     0.024 A 
ATOM     11  C11 UNK d          23.335  29.242  27.545  0.00  0.00     0.004 A 
ATOM     12  C12 UNK d          23.078  28.679  28.911  0.00  0.00     0.001 A 
ATOM     13  C13 UNK d          23.128  29.574  30.113  0.00  0.00     0.004 A 
ATOM     14  C14 UNK d          23.435  31.033  29.949  0.00  0.00     0.024 A 
ENDBRANCH   1   9
TORSDOF 4
ENDMDL
MODEL 5
REMARK VINA RESULT:      -1.4      2.467      5.549
REMARK  4 active torsions:
REMARK  status: ('A' for Active; 'I' for Inactive)
REMARK    1  A    between atoms: C2_2  and  C4_4 
REMARK    2  A    between atoms: C4_4  and  C6_6 
REMARK    3  A    between atoms: C6_6  and  C7_7 
REMARK    4  A    between atoms: C7_7  and  C9_9 
ROOT
ATOM      1  C7  UNK d          23.923  33.792  29.672  0.00  0.00     0.104 C 
ATOM      2  O8  UNK d          22.769  34.742  29.796  0.00  0.00    -0.195 OA
ENDROOT
BRANCH   1   3
ATOM      3  C6  UNK d          25.315  34.259  29.980  0.00  0.00     0.098 C 
BRANCH   3   4
ATOM      4  C4  UNK d          26.109  34.991  28.940  0.00  0.00     0.245 C 
ATOM      5  O5  UNK d          25.739  36.396  28.565  0.00  0.00    -0.211 OA
BRANCH   4   6
ATOM      6  C2  UNK d          27.272  34.319  28.273  0.00  0.00     0.218 C 
ATOM      7  O1  UNK d          27.319  32.823  28.175  0.00  0.00    -0.645 OA
ATOM      8  O3  UNK d          28.390  35.143  27.705  0.00  0.00    -0.645 OA
ENDBRANCH   4   6
ENDBRANCH   3   4
ENDBRANCH   1   3
BRANCH   1   9
ATOM      9  C9  UNK d          23.686  32.376  29.238  0.00  0.00    -0.023 A 
ATOM     10  C10 UNK d          23.228  31.353  30.236  0.00  0.00     0.024 A 
ATOM     11  C11 UNK d          22.990  29.937  29.803  0.00  0.00     0.004 A 
ATOM     12  C12 UNK d          23.211  29.543  28.372  0.00  0.00     0.001 A 
ATOM     13  C13 UNK d          23.670  30.565  27.375  0.00  0.00     0.004 A 
ATOM     14  C14 UNK d          23.907  31.982  27.808  0.00  0.00     0.024 A 
ENDBRANCH   1   9
TORSDOF 4
ENDMDL
MODEL 6
REMARK VINA RESULT:      -1.4      2.799      5.057
REMARK  4 active torsions:
REMARK  status: ('A' for Active; 'I' for Inactive)
REMARK    1  A    between atoms: C2_2  and  C4_4 
REMARK    2  A    between atoms: C4_4  and  C6_6 
REMARK    3  A    between atoms: C6_6  and  C7_7 
REMARK    4  A    between atoms: C7_7  and  C9_9 
ROOT
ATOM      1  C7  UNK d          26.321  34.374  28.704  0.00  0.00     0.104 C 
ATOM      2  O8  UNK d          27.327  34.918  27.733  0.00  0.00    -0.195 OA
ENDROOT
BRANCH   1   3
ATOM      3  C6  UNK d          25.957  35.161  29.927  0.00  0.00     0.098 C 
BRANCH   3   4
ATOM      4  C4  UNK d          24.840  36.160  29.871  0.00  0.00     0.245 C 
ATOM      5  O5  UNK d          25.030  37.458  29.143  0.00  0.00    -0.211 OA
BRANCH   4   6
ATOM      6  C2  UNK d          23.533  35.862  30.544  0.00  0.00     0.218 C 
ATOM      7  O1  UNK d          23.197  36.513  31.853  0.00  0.00    -0.645 OA
ATOM      8  O3  UNK d          22.561  34.913  29.908  0.00  0.00    -0.645 OA
ENDBRANCH   4   6
ENDBRANCH   3   4
ENDBRANCH   1   3
BRANCH   1   9
ATOM      9  C9  UNK d          25.680  33.042  28.451  0.00  0.00    -0.023 A 
ATOM     10  C10 UNK d          26.289  31.795  29.021  0.00  0.00     0.024 A 
ATOM     11  C11 UNK d          25.648  30.463  28.768  0.00  0.00     0.004 A 
ATOM     12  C12 UNK d          24.397  30.377  27.945  0.00  0.00     0.001 A 
ATOM     13  C13 UNK d          23.787  31.624  27.375  0.00  0.00     0.004 A 
ATOM     14  C14 UNK d          24.428  32.956  27.628  0.00  0.00     0.024 A 
ENDBRANCH   1   9
TORSDOF 4
ENDMDL
MODEL 7
REMARK VINA RESULT:      -1.3      1.103      2.449
REMARK  4 active torsions:
REMARK  status: ('A' for Active; 'I' for Inactive)
REMARK    1  A    between atoms: C2_2  and  C4_4 
REMARK    2  A    between atoms: C4_4  and  C6_6 
REMARK    3  A    between atoms: C6_6  and  C7_7 
REMARK    4  A    between atoms: C7_7  and  C9_9 
ROOT
ATOM      1  C7  UNK d          24.511  33.659  29.613  0.00  0.00     0.104 C 
ATOM      2  O8  UNK d          24.731  33.229  31.033  0.00  0.00    -0.195 OA
ENDROOT
BRANCH   1   3
ATOM      3  C6  UNK d          23.642  32.837  28.708  0.00  0.00     0.098 C 
BRANCH   3   4
ATOM      4  C4  UNK d          24.119  31.501  28.219  0.00  0.00     0.245 C 
ATOM      5  O5  UNK d          25.380  31.405  27.412  0.00  0.00    -0.211 OA
BRANCH   4   6
ATOM      6  C2  UNK d          23.336  30.263  28.538  0.00  0.00     0.218 C 
ATOM      7  O1  UNK d          22.711  29.465  27.431  0.00  0.00    -0.645 OA
ATOM      8  O3  UNK d          23.176  29.822  29.962  0.00  0.00    -0.645 OA
ENDBRANCH   4   6
ENDBRANCH   3   4
ENDBRANCH   1   3
BRANCH   1   9
ATOM      9  C9  UNK d          25.159  34.910  29.098  0.00  0.00    -0.023 A 
ATOM     10  C10 UNK d          24.920  36.218  29.791  0.00  0.00     0.024 A 
ATOM     11  C11 UNK d          25.568  37.469  29.277  0.00  0.00     0.004 A 
ATOM     12  C12 UNK d          26.456  37.411  28.069  0.00  0.00     0.001 A 
ATOM     13  C13 UNK d          26.695  36.103  27.376  0.00  0.00     0.004 A 
ATOM     14  C14 UNK d          26.047  34.852  27.891  0.00  0.00     0.024 A 
ENDBRANCH   1   9
TORSDOF 4
ENDMDL
MODEL 8
REMARK VINA RESULT:      -1.3      1.828      2.876
REMARK  4 active torsions:
REMARK  status: ('A' for Active; 'I' for Inactive)
REMARK    1  A    between atoms: C2_2  and  C4_4 
REMARK    2  A    between atoms: C4_4  and  C6_6 
REMARK    3  A    between atoms: C6_6  and  C7_7 
REMARK    4  A    between atoms: C7_7  and  C9_9 
ROOT
ATOM      1  C7  UNK d          24.641  33.023  28.734  0.00  0.00     0.104 C 
ATOM      2  O8  UNK d          23.626  32.542  27.740  0.00  0.00    -0.195 OA
ENDROOT
BRANCH   1   3
ATOM      3  C6  UNK d          25.118  32.108  29.823  0.00  0.00     0.098 C 
BRANCH   3   4
ATOM      4  C4  UNK d          26.442  31.416  29.694  0.00  0.00     0.245 C 
ATOM      5  O5  UNK d          27.194  31.002  30.925  0.00  0.00    -0.211 OA
BRANCH   4   6
ATOM      6  C2  UNK d          27.015  31.137  28.336  0.00  0.00     0.218 C 
ATOM      7  O1  UNK d          28.245  31.863  27.878  0.00  0.00    -0.645 OA
ATOM      8  O3  UNK d          26.357  30.133  27.437  0.00  0.00    -0.645 OA
ENDBRANCH   4   6
ENDBRANCH   3   4
ENDBRANCH   1   3
BRANCH   1   9
ATOM      9  C9  UNK d          25.181  34.420  28.639  0.00  0.00    -0.023 A 
ATOM     10  C10 UNK d          26.035  34.816  27.471  0.00  0.00     0.024 A 
ATOM     11  C11 UNK d          26.574  36.212  27.376  0.00  0.00     0.004 A 
ATOM     12  C12 UNK d          26.259  37.213  28.448  0.00  0.00     0.001 A 
ATOM     13  C13 UNK d          25.405  36.816  29.616  0.00  0.00     0.004 A 
ATOM     14  C14 UNK d          24.866  35.420  29.711  0.00  0.00     0.024 A 
ENDBRANCH   1   9
TORSDOF 4
ENDMDL
MODEL 9
REMARK VINA RESULT:      -1.2      1.422      2.401
REMARK  4 active torsions:
REMARK  status: ('A' for Active; 'I' for Inactive)
REMARK    1  A    between atoms: C2_2  and  C4_4 
REMARK    2  A    between atoms: C4_4  and  C6_6 
REMARK    3  A    between atoms: C6_6  and  C7_7 
REMARK    4  A    between atoms: C7_7  and  C9_9 
ROOT
ATOM      1  C7  UNK d          26.139  32.630  29.729  0.00  0.00     0.104 C 
ATOM      2  O8  UNK d          27.346  31.795  29.420  0.00  0.00    -0.195 OA
ENDROOT
BRANCH   1   3
ATOM      3  C6  UNK d          25.017  32.055  30.541  0.00  0.00     0.098 C 
BRANCH   3   4
ATOM      4  C4  UNK d          23.903  31.314  29.863  0.00  0.00     0.245 C 
ATOM      5  O5  UNK d          22.690  30.904  30.645  0.00  0.00    -0.211 OA
BRANCH   4   6
ATOM      6  C2  UNK d          24.002  30.983  28.403  0.00  0.00     0.218 C 
ATOM      7  O1  UNK d          23.627  32.009  27.375  0.00  0.00    -0.645 OA
ATOM      8  O3  UNK d          24.476  29.627  27.972  0.00  0.00    -0.645 OA
ENDBRANCH   4   6
ENDBRANCH   3   4
ENDBRANCH   1   3
BRANCH   1   9
ATOM      9  C9  UNK d          26.054  34.041  29.225  0.00  0.00    -0.023 A 
ATOM     10  C10 UNK d          25.297  35.072  30.009  0.00  0.00     0.024 A 
ATOM     11  C11 UNK d          25.212  36.483  29.505  0.00  0.00     0.004 A 
ATOM     12  C12 UNK d          25.883  36.861  28.218  0.00  0.00     0.001 A 
ATOM     13  C13 UNK d          26.639  35.829  27.434  0.00  0.00     0.004 A 
ATOM     14  C14 UNK d          26.724  34.419  27.938  0.00  0.00     0.024 A 
ENDBRANCH   1   9
TORSDOF 4
ENDMDL
