MODEL 1
REMARK VINA RESULT:      -2.6      0.000      0.000
REMARK  1 active torsions:
REMARK  status: ('A' for Active; 'I' for Inactive)
REMARK    1  A    between atoms: C1_1  and  C7_7 
ROOT
ATOM      1  C1  UNK d          24.127  32.611  28.608  0.00  0.00     0.102 A 
ATOM      2  C2  UNK d          23.923  31.925  29.018  0.00  0.00     0.203 A 
ATOM      3  C3  UNK d          24.144  32.620  27.785  0.00  0.00     0.303 A 
ATOM      4  O4  UNK d          23.953  31.927  27.376  0.00  0.00    -0.273 OA
ATOM      5  C5  UNK d          23.736  31.246  28.601  0.00  0.00     0.062 A 
ATOM      6  C6  UNK d          23.749  31.241  27.786  0.00  0.00     0.106 A 
ATOM      7  O8  UNK d          24.348  33.307  27.375  0.00  0.00    -0.259 OA
ATOM      8  O9  UNK d          23.908  31.927  29.846  0.00  0.00    -0.286 OA
ATOM      9  C10 UNK d          23.535  30.571  29.008  0.00  0.00     0.005 A 
ATOM     10  C11 UNK d          23.563  30.565  27.375  0.00  0.00     0.025 A 
ATOM     11  C14 UNK d          23.347  29.889  28.602  0.00  0.00     0.000 A 
ATOM     12  C15 UNK d          23.362  29.889  27.779  0.00  0.00     0.002 A 
ENDROOT
BRANCH   1  13
ATOM     13  C7  UNK d          24.315  33.296  29.028  0.00  0.00     0.008 A 
ATOM     14  C12 UNK d          23.713  33.824  29.244  0.00  0.00     0.000 A 
ATOM     15  C17 UNK d          23.898  34.506  29.661  0.00  0.00     0.000 A 
ATOM     16  C18 UNK d          24.685  34.671  29.869  0.00  0.00     0.000 A 
ATOM     17  C16 UNK d          25.279  34.141  29.651  0.00  0.00     0.000 A 
ATOM     18  C13 UNK d          25.093  33.454  29.230  0.00  0.00     0.000 A 
ENDBRANCH   1  13
TORSDOF 1
ENDMDL
MODEL 2
REMARK VINA RESULT:      -2.5      1.552      2.027
REMARK  1 active torsions:
REMARK  status: ('A' for Active; 'I' for Inactive)
REMARK    1  A    between atoms: C1_1  and  C7_7 
ROOT
ATOM      1  C1  UNK d          25.490  32.983  28.002  0.00  0.00     0.102 A 
ATOM      2  C2  UNK d          24.754  32.746  27.716  0.00  0.00     0.203 A 
ATOM      3  C3  UNK d          26.040  32.428  28.261  0.00  0.00     0.303 A 
ATOM      4  O4  UNK d          25.840  31.626  28.228  0.00  0.00    -0.273 OA
ATOM      5  C5  UNK d          24.569  31.949  27.689  0.00  0.00     0.062 A 
ATOM      6  C6  UNK d          25.104  31.388  27.942  0.00  0.00     0.106 A 
ATOM      7  O8  UNK d          26.777  32.665  28.547  0.00  0.00    -0.259 OA
ATOM      8  O9  UNK d          24.208  33.312  27.459  0.00  0.00    -0.286 OA
ATOM      9  C10 UNK d          23.842  31.718  27.406  0.00  0.00     0.005 A 
ATOM     10  C11 UNK d          24.917  30.598  27.914  0.00  0.00     0.025 A 
ATOM     11  C14 UNK d          23.648  30.927  27.375  0.00  0.00     0.000 A 
ATOM     12  C15 UNK d          24.191  30.364  27.632  0.00  0.00     0.002 A 
ENDROOT
BRANCH   1  13
ATOM     13  C7  UNK d          25.677  33.786  28.030  0.00  0.00     0.008 A 
ATOM     14  C12 UNK d          26.039  34.146  27.375  0.00  0.00     0.000 A 
ATOM     15  C17 UNK d          26.226  34.945  27.400  0.00  0.00     0.000 A 
ATOM     16  C18 UNK d          26.056  35.395  28.077  0.00  0.00     0.000 A 
ATOM     17  C16 UNK d          25.697  35.030  28.724  0.00  0.00     0.000 A 
ATOM     18  C13 UNK d          25.508  34.226  28.700  0.00  0.00     0.000 A 
ENDBRANCH   1  13
TORSDOF 1
ENDMDL
MODEL 3
REMARK VINA RESULT:      -2.5      1.529      3.633
REMARK  1 active torsions:
REMARK  status: ('A' for Active; 'I' for Inactive)
REMARK    1  A    between atoms: C1_1  and  C7_7 
ROOT
ATOM      1  C1  UNK d          24.782  32.703  28.025  0.00  0.00     0.102 A 
ATOM      2  C2  UNK d          25.537  32.793  27.703  0.00  0.00     0.203 A 
ATOM      3  C3  UNK d          24.383  33.347  28.349  0.00  0.00     0.303 A 
ATOM      4  O4  UNK d          24.754  34.086  28.345  0.00  0.00    -0.273 OA
ATOM      5  C5  UNK d          25.892  33.530  27.706  0.00  0.00     0.062 A 
ATOM      6  C6  UNK d          25.508  34.176  28.023  0.00  0.00     0.106 A 
ATOM      7  O8  UNK d          23.629  33.257  28.671  0.00  0.00    -0.259 OA
ATOM      8  O9  UNK d          25.928  32.139  27.380  0.00  0.00    -0.286 OA
ATOM      9  C10 UNK d          26.635  33.615  27.387  0.00  0.00     0.005 A 
ATOM     10  C11 UNK d          25.864  34.907  28.024  0.00  0.00     0.025 A 
ATOM     11  C14 UNK d          26.998  34.345  27.385  0.00  0.00     0.000 A 
ATOM     12  C15 UNK d          26.607  34.995  27.707  0.00  0.00     0.002 A 
ENDROOT
BRANCH   1  13
ATOM     13  C7  UNK d          24.424  31.960  28.023  0.00  0.00     0.008 A 
ATOM     14  C12 UNK d          24.522  31.455  28.674  0.00  0.00     0.000 A 
ATOM     15  C17 UNK d          24.166  30.715  28.674  0.00  0.00     0.000 A 
ATOM     16  C18 UNK d          23.708  30.469  28.026  0.00  0.00     0.000 A 
ATOM     17  C16 UNK d          23.615  30.977  27.383  0.00  0.00     0.000 A 
ATOM     18  C13 UNK d          23.973  31.722  27.382  0.00  0.00     0.000 A 
ENDBRANCH   1  13
TORSDOF 1
ENDMDL
MODEL 4
REMARK VINA RESULT:      -2.5      1.796      2.790
REMARK  1 active torsions:
REMARK  status: ('A' for Active; 'I' for Inactive)
REMARK    1  A    between atoms: C1_1  and  C7_7 
ROOT
ATOM      1  C1  UNK d          25.402  34.519  28.555  0.00  0.00     0.102 A 
ATOM      2  C2  UNK d          25.387  33.941  27.966  0.00  0.00     0.203 A 
ATOM      3  C3  UNK d          24.830  34.531  29.148  0.00  0.00     0.303 A 
ATOM      4  O4  UNK d          24.240  33.952  29.142  0.00  0.00    -0.273 OA
ATOM      5  C5  UNK d          24.797  33.374  27.972  0.00  0.00     0.062 A 
ATOM      6  C6  UNK d          24.225  33.374  28.553  0.00  0.00     0.106 A 
ATOM      7  O8  UNK d          24.846  35.108  29.737  0.00  0.00    -0.259 OA
ATOM      8  O9  UNK d          25.966  33.938  27.375  0.00  0.00    -0.286 OA
ATOM      9  C10 UNK d          24.785  32.806  27.390  0.00  0.00     0.005 A 
ATOM     10  C11 UNK d          23.640  32.809  28.556  0.00  0.00     0.025 A 
ATOM     11  C14 UNK d          24.201  32.236  27.387  0.00  0.00     0.000 A 
ATOM     12  C15 UNK d          23.625  32.240  27.976  0.00  0.00     0.002 A 
ENDROOT
BRANCH   1  13
ATOM     13  C7  UNK d          25.996  35.091  28.550  0.00  0.00     0.008 A 
ATOM     14  C12 UNK d          25.879  35.801  28.137  0.00  0.00     0.000 A 
ATOM     15  C17 UNK d          26.469  36.372  28.131  0.00  0.00     0.000 A 
ATOM     16  C18 UNK d          27.183  36.242  28.535  0.00  0.00     0.000 A 
ATOM     17  C16 UNK d          27.292  35.534  28.944  0.00  0.00     0.000 A 
ATOM     18  C13 UNK d          26.699  34.958  28.951  0.00  0.00     0.000 A 
ENDBRANCH   1  13
TORSDOF 1
ENDMDL
MODEL 5
REMARK VINA RESULT:      -2.4      1.581      2.559
REMARK  1 active torsions:
REMARK  status: ('A' for Active; 'I' for Inactive)
REMARK    1  A    between atoms: C1_1  and  C7_7 
ROOT
ATOM      1  C1  UNK d          24.039  34.426  29.640  0.00  0.00     0.102 A 
ATOM      2  C2  UNK d          23.660  33.769  29.313  0.00  0.00     0.203 A 
ATOM      3  C3  UNK d          24.745  34.706  29.322  0.00  0.00     0.303 A 
ATOM      4  O4  UNK d          25.067  34.317  28.667  0.00  0.00    -0.273 OA
ATOM      5  C5  UNK d          23.991  33.394  28.665  0.00  0.00     0.062 A 
ATOM      6  C6  UNK d          24.689  33.661  28.340  0.00  0.00     0.106 A 
ATOM      7  O8  UNK d          25.123  35.363  29.649  0.00  0.00    -0.259 OA
ATOM      8  O9  UNK d          22.952  33.495  29.640  0.00  0.00    -0.286 OA
ATOM      9  C10 UNK d          23.616  32.747  28.346  0.00  0.00     0.005 A 
ATOM     10  C11 UNK d          25.015  33.286  27.697  0.00  0.00     0.025 A 
ATOM     11  C14 UNK d          23.937  32.366  27.700  0.00  0.00     0.000 A 
ATOM     12  C15 UNK d          24.642  32.639  27.375  0.00  0.00     0.002 A 
ENDROOT
BRANCH   1  13
ATOM     13  C7  UNK d          23.706  34.805  30.293  0.00  0.00     0.008 A 
ATOM     14  C12 UNK d          23.913  34.561  31.059  0.00  0.00     0.000 A 
ATOM     15  C17 UNK d          23.584  34.937  31.710  0.00  0.00     0.000 A 
ATOM     16  C18 UNK d          23.044  35.560  31.606  0.00  0.00     0.000 A 
ATOM     17  C16 UNK d          22.843  35.797  30.842  0.00  0.00     0.000 A 
ATOM     18  C13 UNK d          23.175  35.419  30.186  0.00  0.00     0.000 A 
ENDBRANCH   1  13
TORSDOF 1
ENDMDL
