MODEL 1
REMARK VINA RESULT:      -2.6      0.000      0.000
REMARK  3 active torsions:
REMARK  status: ('A' for Active; 'I' for Inactive)
REMARK    1  A    between atoms: C8_8  and  C11_11 
REMARK    2  A    between atoms: C11_11  and  C12_12 
REMARK    3  A    between atoms: C12_12  and  C13_13 
ROOT
ATOM      1  C1  UNK d          25.874  37.316  29.019  0.00  0.00     0.003 A 
ATOM      2  C2  UNK d          25.391  36.920  29.563  0.00  0.00     0.044 A 
ATOM      3  C3  UNK d          25.237  36.116  29.468  0.00  0.00     0.213 A 
ATOM      4  C4  UNK d          26.201  36.911  28.384  0.00  0.00     0.002 A 
ATOM      5  C5  UNK d          26.050  36.104  28.284  0.00  0.00     0.021 A 
ATOM      6  C6  UNK d          25.568  35.706  28.827  0.00  0.00     0.120 A 
ATOM      7  N7  UNK d          25.416  34.901  28.729  0.00  0.00    -0.242 NA
ATOM      8  C8  UNK d          25.746  34.492  28.089  0.00  0.00     0.082 A 
ATOM      9  C9  UNK d          26.229  34.895  27.548  0.00  0.00     0.019 A 
ATOM     10  C10 UNK d          26.379  35.699  27.647  0.00  0.00     0.003 A 
ATOM     11  O19 UNK d          24.757  35.719  30.009  0.00  0.00    -0.285 OA
ENDROOT
BRANCH   8  12
ATOM     12  C11 UNK d          25.594  33.687  27.991  0.00  0.00     0.019 C 
BRANCH  12  13
ATOM     13  C12 UNK d          25.075  33.435  27.402  0.00  0.00     0.002 C 
BRANCH  13  14
ATOM     14  C13 UNK d          24.810  32.653  27.393  0.00  0.00     0.000 A 
ATOM     15  C14 UNK d          25.355  32.036  27.388  0.00  0.00     0.000 A 
ATOM     16  C15 UNK d          25.090  31.255  27.379  0.00  0.00     0.000 A 
ATOM     17  C16 UNK d          24.280  31.093  27.375  0.00  0.00     0.000 A 
ATOM     18  C17 UNK d          23.735  31.719  27.380  0.00  0.00     0.000 A 
ATOM     19  C18 UNK d          24.002  32.496  27.389  0.00  0.00     0.000 A 
ENDBRANCH  13  14
ENDBRANCH  12  13
ENDBRANCH   8  12
TORSDOF 3
ENDMDL
MODEL 2
REMARK VINA RESULT:      -2.6      1.171      1.711
REMARK  3 active torsions:
REMARK  status: ('A' for Active; 'I' for Inactive)
REMARK    1  A    between atoms: C8_8  and  C11_11 
REMARK    2  A    between atoms: C11_11  and  C12_12 
REMARK    3  A    between atoms: C12_12  and  C13_13 
ROOT
ATOM      1  C1  UNK d          25.495  37.332  29.463  0.00  0.00     0.003 A 
ATOM      2  C2  UNK d          25.977  36.983  28.887  0.00  0.00     0.044 A 
ATOM      3  C3  UNK d          25.893  36.183  28.709  0.00  0.00     0.213 A 
ATOM      4  C4  UNK d          24.932  36.884  29.858  0.00  0.00     0.002 A 
ATOM      5  C5  UNK d          24.843  36.081  29.684  0.00  0.00     0.021 A 
ATOM      6  C6  UNK d          25.324  35.730  29.109  0.00  0.00     0.120 A 
ATOM      7  N7  UNK d          25.238  34.928  28.933  0.00  0.00    -0.242 NA
ATOM      8  C8  UNK d          24.671  34.476  29.332  0.00  0.00     0.082 A 
ATOM      9  C9  UNK d          24.191  34.832  29.908  0.00  0.00     0.019 A 
ATOM     10  C10 UNK d          24.279  35.633  30.082  0.00  0.00     0.003 A 
ATOM     11  O19 UNK d          26.372  35.833  28.136  0.00  0.00    -0.285 OA
ENDROOT
BRANCH   8  12
ATOM     12  C11 UNK d          24.584  33.674  29.157  0.00  0.00     0.019 C 
BRANCH  12  13
ATOM     13  C12 UNK d          23.919  33.413  28.745  0.00  0.00     0.002 C 
BRANCH  13  14
ATOM     14  C13 UNK d          23.886  32.637  28.465  0.00  0.00     0.000 A 
ATOM     15  C14 UNK d          23.881  32.494  27.655  0.00  0.00     0.000 A 
ATOM     16  C15 UNK d          23.848  31.719  27.376  0.00  0.00     0.000 A 
ATOM     17  C16 UNK d          23.820  31.088  27.908  0.00  0.00     0.000 A 
ATOM     18  C17 UNK d          23.825  31.238  28.724  0.00  0.00     0.000 A 
ATOM     19  C18 UNK d          23.858  32.011  29.000  0.00  0.00     0.000 A 
ENDBRANCH  13  14
ENDBRANCH  12  13
ENDBRANCH   8  12
TORSDOF 3
ENDMDL
MODEL 3
REMARK VINA RESULT:      -2.6      1.114      1.811
REMARK  3 active torsions:
REMARK  status: ('A' for Active; 'I' for Inactive)
REMARK    1  A    between atoms: C8_8  and  C11_11 
REMARK    2  A    between atoms: C11_11  and  C12_12 
REMARK    3  A    between atoms: C12_12  and  C13_13 
ROOT
ATOM      1  C1  UNK d          25.966  35.677  28.826  0.00  0.00     0.003 A 
ATOM      2  C2  UNK d          25.502  35.468  29.480  0.00  0.00     0.044 A 
ATOM      3  C3  UNK d          25.040  34.786  29.456  0.00  0.00     0.213 A 
ATOM      4  C4  UNK d          25.967  35.207  28.153  0.00  0.00     0.002 A 
ATOM      5  C5  UNK d          25.505  34.523  28.123  0.00  0.00     0.021 A 
ATOM      6  C6  UNK d          25.041  34.312  28.776  0.00  0.00     0.120 A 
ATOM      7  N7  UNK d          24.579  33.628  28.749  0.00  0.00    -0.242 NA
ATOM      8  C8  UNK d          24.580  33.155  28.070  0.00  0.00     0.082 A 
ATOM      9  C9  UNK d          25.046  33.370  27.418  0.00  0.00     0.019 A 
ATOM     10  C10 UNK d          25.507  34.053  27.447  0.00  0.00     0.003 A 
ATOM     11  O19 UNK d          24.578  34.576  30.106  0.00  0.00    -0.285 OA
ENDROOT
BRANCH   8  12
ATOM     12  C11 UNK d          24.118  32.471  28.042  0.00  0.00     0.019 C 
BRANCH  12  13
ATOM     13  C12 UNK d          24.480  31.731  28.018  0.00  0.00     0.002 C 
BRANCH  13  14
ATOM     14  C13 UNK d          24.022  31.046  28.068  0.00  0.00     0.000 A 
ATOM     15  C14 UNK d          23.915  30.677  28.796  0.00  0.00     0.000 A 
ATOM     16  C15 UNK d          23.458  29.993  28.845  0.00  0.00     0.000 A 
ATOM     17  C16 UNK d          23.107  29.679  28.167  0.00  0.00     0.000 A 
ATOM     18  C17 UNK d          23.218  30.055  27.435  0.00  0.00     0.000 A 
ATOM     19  C18 UNK d          23.675  30.737  27.389  0.00  0.00     0.000 A 
ENDBRANCH  13  14
ENDBRANCH  12  13
ENDBRANCH   8  12
TORSDOF 3
ENDMDL
MODEL 4
REMARK VINA RESULT:      -2.4      1.703      4.557
REMARK  3 active torsions:
REMARK  status: ('A' for Active; 'I' for Inactive)
REMARK    1  A    between atoms: C8_8  and  C11_11 
REMARK    2  A    between atoms: C11_11  and  C12_12 
REMARK    3  A    between atoms: C12_12  and  C13_13 
ROOT
ATOM      1  C1  UNK d          23.944  30.741  27.469  0.00  0.00     0.003 A 
ATOM      2  C2  UNK d          24.756  30.610  27.378  0.00  0.00     0.044 A 
ATOM      3  C3  UNK d          25.287  31.233  27.470  0.00  0.00     0.213 A 
ATOM      4  C4  UNK d          23.663  31.492  27.651  0.00  0.00     0.002 A 
ATOM      5  C5  UNK d          24.191  32.121  27.744  0.00  0.00     0.021 A 
ATOM      6  C6  UNK d          25.004  31.991  27.653  0.00  0.00     0.120 A 
ATOM      7  N7  UNK d          25.534  32.618  27.746  0.00  0.00    -0.242 NA
ATOM      8  C8  UNK d          25.252  33.374  27.928  0.00  0.00     0.082 A 
ATOM      9  C9  UNK d          24.436  33.499  28.018  0.00  0.00     0.019 A 
ATOM     10  C10 UNK d          23.910  32.872  27.925  0.00  0.00     0.003 A 
ATOM     11  O19 UNK d          26.097  31.104  27.380  0.00  0.00    -0.285 OA
ENDROOT
BRANCH   8  12
ATOM     12  C11 UNK d          25.780  34.001  28.021  0.00  0.00     0.019 C 
BRANCH  12  13
ATOM     13  C12 UNK d          25.942  34.500  27.385  0.00  0.00     0.002 C 
BRANCH  13  14
ATOM     14  C13 UNK d          26.496  35.107  27.467  0.00  0.00     0.000 A 
ATOM     15  C14 UNK d          26.243  35.872  27.637  0.00  0.00     0.000 A 
ATOM     16  C15 UNK d          26.796  36.478  27.719  0.00  0.00     0.000 A 
ATOM     17  C16 UNK d          27.601  36.318  27.632  0.00  0.00     0.000 A 
ATOM     18  C17 UNK d          27.851  35.545  27.460  0.00  0.00     0.000 A 
ATOM     19  C18 UNK d          27.297  34.943  27.379  0.00  0.00     0.000 A 
ENDBRANCH  13  14
ENDBRANCH  12  13
ENDBRANCH   8  12
TORSDOF 3
ENDMDL
MODEL 5
REMARK VINA RESULT:      -2.4      1.387      4.349
REMARK  3 active torsions:
REMARK  status: ('A' for Active; 'I' for Inactive)
REMARK    1  A    between atoms: C8_8  and  C11_11 
REMARK    2  A    between atoms: C11_11  and  C12_12 
REMARK    3  A    between atoms: C12_12  and  C13_13 
ROOT
ATOM      1  C1  UNK d          23.599  30.567  28.753  0.00  0.00     0.003 A 
ATOM      2  C2  UNK d          23.551  31.010  29.451  0.00  0.00     0.044 A 
ATOM      3  C3  UNK d          23.795  31.797  29.457  0.00  0.00     0.213 A 
ATOM      4  C4  UNK d          23.889  30.910  28.065  0.00  0.00     0.002 A 
ATOM      5  C5  UNK d          24.134  31.699  28.065  0.00  0.00     0.021 A 
ATOM      6  C6  UNK d          24.088  32.143  28.763  0.00  0.00     0.120 A 
ATOM      7  N7  UNK d          24.332  32.931  28.766  0.00  0.00    -0.242 NA
ATOM      8  C8  UNK d          24.624  33.277  28.072  0.00  0.00     0.082 A 
ATOM      9  C9  UNK d          24.670  32.828  27.376  0.00  0.00     0.019 A 
ATOM     10  C10 UNK d          24.425  32.041  27.375  0.00  0.00     0.003 A 
ATOM     11  O19 UNK d          23.748  32.239  30.152  0.00  0.00    -0.285 OA
ENDROOT
BRANCH   8  12
ATOM     12  C11 UNK d          24.869  34.065  28.075  0.00  0.00     0.019 C 
BRANCH  12  13
ATOM     13  C12 UNK d          25.673  34.245  28.102  0.00  0.00     0.002 C 
BRANCH  13  14
ATOM     14  C13 UNK d          25.920  35.034  28.091  0.00  0.00     0.000 A 
ATOM     15  C14 UNK d          26.244  35.352  27.405  0.00  0.00     0.000 A 
ATOM     16  C15 UNK d          26.489  36.139  27.394  0.00  0.00     0.000 A 
ATOM     17  C16 UNK d          26.410  36.607  28.070  0.00  0.00     0.000 A 
ATOM     18  C17 UNK d          26.083  36.281  28.759  0.00  0.00     0.000 A 
ATOM     19  C18 UNK d          25.839  35.496  28.767  0.00  0.00     0.000 A 
ENDBRANCH  13  14
ENDBRANCH  12  13
ENDBRANCH   8  12
TORSDOF 3
ENDMDL
MODEL 6
REMARK VINA RESULT:      -2.4      1.082      4.344
REMARK  3 active torsions:
REMARK  status: ('A' for Active; 'I' for Inactive)
REMARK    1  A    between atoms: C8_8  and  C11_11 
REMARK    2  A    between atoms: C11_11  and  C12_12 
REMARK    3  A    between atoms: C12_12  and  C13_13 
ROOT
ATOM      1  C1  UNK d          24.536  31.183  27.561  0.00  0.00     0.003 A 
ATOM      2  C2  UNK d          23.906  31.696  27.723  0.00  0.00     0.044 A 
ATOM      3  C3  UNK d          24.037  32.508  27.769  0.00  0.00     0.213 A 
ATOM      4  C4  UNK d          25.292  31.481  27.446  0.00  0.00     0.002 A 
ATOM      5  C5  UNK d          25.430  32.294  27.491  0.00  0.00     0.021 A 
ATOM      6  C6  UNK d          24.801  32.808  27.653  0.00  0.00     0.120 A 
ATOM      7  N7  UNK d          24.936  33.622  27.698  0.00  0.00    -0.242 NA
ATOM      8  C8  UNK d          25.698  33.922  27.582  0.00  0.00     0.082 A 
ATOM      9  C9  UNK d          26.325  33.403  27.420  0.00  0.00     0.019 A 
ATOM     10  C10 UNK d          26.189  32.591  27.375  0.00  0.00     0.003 A 
ATOM     11  O19 UNK d          23.411  33.020  27.930  0.00  0.00    -0.285 OA
ENDROOT
BRANCH   8  12
ATOM     12  C11 UNK d          25.833  34.735  27.627  0.00  0.00     0.019 C 
BRANCH  12  13
ATOM     13  C12 UNK d          26.246  35.048  28.269  0.00  0.00     0.002 C 
BRANCH  13  14
ATOM     14  C13 UNK d          26.309  35.867  28.359  0.00  0.00     0.000 A 
ATOM     15  C14 UNK d          26.831  36.292  27.886  0.00  0.00     0.000 A 
ATOM     16  C15 UNK d          26.894  37.109  27.976  0.00  0.00     0.000 A 
ATOM     17  C16 UNK d          26.433  37.500  28.539  0.00  0.00     0.000 A 
ATOM     18  C17 UNK d          25.907  37.066  29.013  0.00  0.00     0.000 A 
ATOM     19  C18 UNK d          25.847  36.252  28.921  0.00  0.00     0.000 A 
ENDBRANCH  13  14
ENDBRANCH  12  13
ENDBRANCH   8  12
TORSDOF 3
ENDMDL
MODEL 7
REMARK VINA RESULT:      -2.3      2.324      4.851
REMARK  3 active torsions:
REMARK  status: ('A' for Active; 'I' for Inactive)
REMARK    1  A    between atoms: C8_8  and  C11_11 
REMARK    2  A    between atoms: C11_11  and  C12_12 
REMARK    3  A    between atoms: C12_12  and  C13_13 
ROOT
ATOM      1  C1  UNK d          23.876  30.349  27.661  0.00  0.00     0.003 A 
ATOM      2  C2  UNK d          23.688  30.228  28.458  0.00  0.00     0.044 A 
ATOM      3  C3  UNK d          23.625  30.872  28.969  0.00  0.00     0.213 A 
ATOM      4  C4  UNK d          24.000  31.109  27.375  0.00  0.00     0.002 A 
ATOM      5  C5  UNK d          23.938  31.758  27.883  0.00  0.00     0.021 A 
ATOM      6  C6  UNK d          23.750  31.640  28.680  0.00  0.00     0.120 A 
ATOM      7  N7  UNK d          23.688  32.287  29.189  0.00  0.00    -0.242 NA
ATOM      8  C8  UNK d          23.813  33.053  28.902  0.00  0.00     0.082 A 
ATOM      9  C9  UNK d          24.000  33.167  28.102  0.00  0.00     0.019 A 
ATOM     10  C10 UNK d          24.062  32.520  27.595  0.00  0.00     0.003 A 
ATOM     11  O19 UNK d          23.439  30.754  29.763  0.00  0.00    -0.285 OA
ENDROOT
BRANCH   8  12
ATOM     12  C11 UNK d          23.751  33.700  29.410  0.00  0.00     0.019 C 
BRANCH  12  13
ATOM     13  C12 UNK d          24.415  34.161  29.572  0.00  0.00     0.002 C 
BRANCH  13  14
ATOM     14  C13 UNK d          24.378  34.748  30.151  0.00  0.00     0.000 A 
ATOM     15  C14 UNK d          23.972  35.448  30.000  0.00  0.00     0.000 A 
ATOM     16  C15 UNK d          23.936  36.034  30.579  0.00  0.00     0.000 A 
ATOM     17  C16 UNK d          24.305  35.919  31.309  0.00  0.00     0.000 A 
ATOM     18  C17 UNK d          24.713  35.211  31.456  0.00  0.00     0.000 A 
ATOM     19  C18 UNK d          24.748  34.629  30.877  0.00  0.00     0.000 A 
ENDBRANCH  13  14
ENDBRANCH  12  13
ENDBRANCH   8  12
TORSDOF 3
ENDMDL
MODEL 8
REMARK VINA RESULT:      -2.2      2.766      3.839
REMARK  3 active torsions:
REMARK  status: ('A' for Active; 'I' for Inactive)
REMARK    1  A    between atoms: C8_8  and  C11_11 
REMARK    2  A    between atoms: C11_11  and  C12_12 
REMARK    3  A    between atoms: C12_12  and  C13_13 
ROOT
ATOM      1  C1  UNK d          23.396  34.041  29.642  0.00  0.00     0.003 A 
ATOM      2  C2  UNK d          23.282  33.499  30.257  0.00  0.00     0.044 A 
ATOM      3  C3  UNK d          23.364  32.692  30.116  0.00  0.00     0.213 A 
ATOM      4  C4  UNK d          23.591  33.777  28.889  0.00  0.00     0.002 A 
ATOM      5  C5  UNK d          23.674  32.969  28.741  0.00  0.00     0.021 A 
ATOM      6  C6  UNK d          23.560  32.425  29.355  0.00  0.00     0.120 A 
ATOM      7  N7  UNK d          23.643  31.617  29.210  0.00  0.00    -0.242 NA
ATOM      8  C8  UNK d          23.839  31.350  28.451  0.00  0.00     0.082 A 
ATOM      9  C9  UNK d          23.953  31.899  27.839  0.00  0.00     0.019 A 
ATOM     10  C10 UNK d          23.870  32.705  27.986  0.00  0.00     0.003 A 
ATOM     11  O19 UNK d          23.250  32.150  30.728  0.00  0.00    -0.285 OA
ENDROOT
BRANCH   8  12
ATOM     12  C11 UNK d          23.922  30.542  28.305  0.00  0.00     0.019 C 
BRANCH  12  13
ATOM     13  C12 UNK d          23.422  30.168  27.767  0.00  0.00     0.002 C 
BRANCH  13  14
ATOM     14  C13 UNK d          23.413  29.344  27.716  0.00  0.00     0.000 A 
ATOM     15  C14 UNK d          22.740  28.927  27.940  0.00  0.00     0.000 A 
ATOM     16  C15 UNK d          22.731  28.104  27.889  0.00  0.00     0.000 A 
ATOM     17  C16 UNK d          23.396  27.700  27.614  0.00  0.00     0.000 A 
ATOM     18  C17 UNK d          24.073  28.125  27.390  0.00  0.00     0.000 A 
ATOM     19  C18 UNK d          24.079  28.945  27.442  0.00  0.00     0.000 A 
ENDBRANCH  13  14
ENDBRANCH  12  13
ENDBRANCH   8  12
TORSDOF 3
ENDMDL
