MODEL 1
REMARK VINA RESULT:      -4.3      0.000      0.000
REMARK  3 active torsions:
REMARK  status: ('A' for Active; 'I' for Inactive)
REMARK    1  A    between atoms: C1_1  and  C5_5 
REMARK    2  A    between atoms: C2_2  and  C5_5 
REMARK    3  A    between atoms: C5_5  and  C12_12 
ROOT
ATOM      1  C5  UNK d          24.344  32.854  28.613  0.00  0.00     0.017 C 
ENDROOT
BRANCH   1   2
ATOM      2  C1  UNK d          24.890  33.093  28.503  0.00  0.00     0.103 A 
ATOM      3  C3  UNK d          24.966  33.494  28.045  0.00  0.00     0.203 A 
ATOM      4  C10 UNK d          25.507  33.728  27.939  0.00  0.00     0.062 A 
ATOM      5  O25 UNK d          24.496  33.648  27.705  0.00  0.00    -0.286 OA
ATOM      6  C28 UNK d          25.578  34.124  27.485  0.00  0.00     0.005 A 
ATOM      7  C13 UNK d          25.983  33.571  28.283  0.00  0.00     0.106 A 
ATOM      8  C31 UNK d          26.125  34.363  27.375  0.00  0.00     0.000 A 
ATOM      9  C33 UNK d          26.594  34.208  27.715  0.00  0.00     0.002 A 
ATOM     10  C30 UNK d          26.527  33.811  28.171  0.00  0.00     0.025 A 
ATOM     11  O8  UNK d          25.914  33.181  28.731  0.00  0.00    -0.273 OA
ATOM     12  C6  UNK d          25.366  32.936  28.848  0.00  0.00     0.303 A 
ATOM     13  O18 UNK d          25.339  32.616  29.225  0.00  0.00    -0.259 OA
ENDBRANCH   1   2
BRANCH   1  14
ATOM     14  C2  UNK d          24.157  32.367  28.306  0.00  0.00     0.103 A 
ATOM     15  C4  UNK d          24.266  31.807  28.517  0.00  0.00     0.203 A 
ATOM     16  C11 UNK d          24.080  31.320  28.210  0.00  0.00     0.062 A 
ATOM     17  O24 UNK d          24.567  31.740  29.046  0.00  0.00    -0.286 OA
ATOM     18  C27 UNK d          24.188  30.764  28.421  0.00  0.00     0.005 A 
ATOM     19  C14 UNK d          23.783  31.390  27.689  0.00  0.00     0.106 A 
ATOM     20  C32 UNK d          24.002  30.278  28.114  0.00  0.00     0.000 A 
ATOM     21  C34 UNK d          23.705  30.348  27.593  0.00  0.00     0.002 A 
ATOM     22  C29 UNK d          23.592  30.905  27.375  0.00  0.00     0.025 A 
ATOM     23  O9  UNK d          23.670  31.952  27.471  0.00  0.00    -0.273 OA
ATOM     24  C7  UNK d          23.860  32.437  27.785  0.00  0.00     0.303 A 
ATOM     25  O17 UNK d          23.664  32.748  27.431  0.00  0.00    -0.259 OA
ENDBRANCH   1  14
BRANCH   1  26
ATOM     26  C12 UNK d          23.978  33.105  29.036  0.00  0.00     0.003 A 
ATOM     27  C15 UNK d          23.539  33.484  28.866  0.00  0.00     0.026 A 
ATOM     28  C16 UNK d          23.180  33.730  29.291  0.00  0.00     0.119 A 
ATOM     29  O20 UNK d          22.707  34.123  29.247  0.00  0.00    -0.300 OA
ATOM     30  C19 UNK d          23.259  33.598  29.878  0.00  0.00     0.119 A 
ATOM     31  C22 UNK d          22.500  34.227  29.809  0.00  0.00     0.304 A 
ATOM     32  O21 UNK d          22.839  33.905  30.202  0.00  0.00    -0.300 OA
ATOM     33  C26 UNK d          23.702  33.215  30.048  0.00  0.00     0.026 A 
ATOM     34  C23 UNK d          24.063  32.968  29.626  0.00  0.00     0.002 A 
ENDBRANCH   1  26
TORSDOF 3
ENDMDL
MODEL 2
REMARK VINA RESULT:      -4.3      0.331      2.484
REMARK  3 active torsions:
REMARK  status: ('A' for Active; 'I' for Inactive)
REMARK    1  A    between atoms: C1_1  and  C5_5 
REMARK    2  A    between atoms: C2_2  and  C5_5 
REMARK    3  A    between atoms: C5_5  and  C12_12 
ROOT
ATOM      1  C5  UNK d          24.450  32.806  28.598  0.00  0.00     0.017 C 
ENDROOT
BRANCH   1   2
ATOM      2  C1  UNK d          24.393  32.211  28.495  0.00  0.00     0.103 A 
ATOM      3  C3  UNK d          24.040  32.009  28.035  0.00  0.00     0.203 A 
ATOM      4  C10 UNK d          23.986  31.420  27.937  0.00  0.00     0.062 A 
ATOM      5  O25 UNK d          23.751  32.403  27.687  0.00  0.00    -0.286 OA
ATOM      6  C28 UNK d          23.637  31.224  27.481  0.00  0.00     0.005 A 
ATOM      7  C13 UNK d          24.279  31.020  28.290  0.00  0.00     0.106 A 
ATOM      8  C31 UNK d          23.580  30.629  27.378  0.00  0.00     0.000 A 
ATOM      9  C33 UNK d          23.868  30.235  27.727  0.00  0.00     0.002 A 
ATOM     10  C30 UNK d          24.220  30.428  28.184  0.00  0.00     0.025 A 
ATOM     11  O8  UNK d          24.623  31.213  28.739  0.00  0.00    -0.273 OA
ATOM     12  C6  UNK d          24.685  31.811  28.848  0.00  0.00     0.303 A 
ATOM     13  O18 UNK d          24.977  31.941  29.227  0.00  0.00    -0.259 OA
ENDBRANCH   1   2
BRANCH   1  14
ATOM     14  C2  UNK d          24.862  33.129  28.295  0.00  0.00     0.103 A 
ATOM     15  C4  UNK d          25.422  33.206  28.519  0.00  0.00     0.203 A 
ATOM     16  C11 UNK d          25.834  33.528  28.216  0.00  0.00     0.062 A 
ATOM     17  O24 UNK d          25.566  32.952  29.058  0.00  0.00    -0.286 OA
ATOM     18  C27 UNK d          26.390  33.604  28.441  0.00  0.00     0.005 A 
ATOM     19  C14 UNK d          25.689  33.777  27.685  0.00  0.00     0.106 A 
ATOM     20  C32 UNK d          26.802  33.927  28.138  0.00  0.00     0.000 A 
ATOM     21  C34 UNK d          26.657  34.175  27.607  0.00  0.00     0.002 A 
ATOM     22  C29 UNK d          26.099  34.103  27.375  0.00  0.00     0.025 A 
ATOM     23  O9  UNK d          25.127  33.703  27.454  0.00  0.00    -0.273 OA
ATOM     24  C7  UNK d          24.716  33.377  27.764  0.00  0.00     0.303 A 
ATOM     25  O17 UNK d          24.369  33.458  27.399  0.00  0.00    -0.259 OA
ENDBRANCH   1  14
BRANCH   1  26
ATOM     26  C12 UNK d          24.089  33.082  29.009  0.00  0.00     0.003 A 
ATOM     27  C15 UNK d          23.603  33.390  28.824  0.00  0.00     0.026 A 
ATOM     28  C16 UNK d          23.251  33.662  29.238  0.00  0.00     0.119 A 
ATOM     29  O20 UNK d          22.738  33.999  29.178  0.00  0.00    -0.300 OA
ATOM     30  C19 UNK d          23.382  33.627  29.829  0.00  0.00     0.119 A 
ATOM     31  C22 UNK d          22.560  34.167  29.734  0.00  0.00     0.304 A 
ATOM     32  O21 UNK d          22.955  33.938  30.140  0.00  0.00    -0.300 OA
ATOM     33  C26 UNK d          23.873  33.315  30.015  0.00  0.00     0.026 A 
ATOM     34  C23 UNK d          24.228  33.043  29.604  0.00  0.00     0.002 A 
ENDBRANCH   1  26
TORSDOF 3
ENDMDL
MODEL 3
REMARK VINA RESULT:      -4.2      0.662      2.586
REMARK  3 active torsions:
REMARK  status: ('A' for Active; 'I' for Inactive)
REMARK    1  A    between atoms: C1_1  and  C5_5 
REMARK    2  A    between atoms: C2_2  and  C5_5 
REMARK    3  A    between atoms: C5_5  and  C12_12 
ROOT
ATOM      1  C5  UNK d          24.376  32.620  28.352  0.00  0.00     0.017 C 
ENDROOT
BRANCH   1   2
ATOM      2  C1  UNK d          24.854  32.901  28.107  0.00  0.00     0.103 A 
ATOM      3  C3  UNK d          25.416  32.812  28.336  0.00  0.00     0.203 A 
ATOM      4  C10 UNK d          25.886  33.093  28.092  0.00  0.00     0.062 A 
ATOM      5  O25 UNK d          25.491  32.445  28.805  0.00  0.00    -0.286 OA
ATOM      6  C28 UNK d          26.441  33.002  28.321  0.00  0.00     0.005 A 
ATOM      7  C13 UNK d          25.810  33.465  27.617  0.00  0.00     0.106 A 
ATOM      8  C31 UNK d          26.919  33.284  28.076  0.00  0.00     0.000 A 
ATOM      9  C33 UNK d          26.844  33.652  27.608  0.00  0.00     0.002 A 
ATOM     10  C30 UNK d          26.289  33.744  27.375  0.00  0.00     0.025 A 
ATOM     11  O8  UNK d          25.265  33.555  27.390  0.00  0.00    -0.273 OA
ATOM     12  C6  UNK d          24.778  33.274  27.632  0.00  0.00     0.303 A 
ATOM     13  O18 UNK d          24.339  33.367  27.424  0.00  0.00    -0.259 OA
ENDBRANCH   1   2
BRANCH   1  14
ATOM     14  C2  UNK d          24.094  32.860  28.830  0.00  0.00     0.103 A 
ATOM     15  C4  UNK d          23.627  33.242  28.755  0.00  0.00     0.203 A 
ATOM     16  C11 UNK d          23.344  33.482  29.232  0.00  0.00     0.062 A 
ATOM     17  O24 UNK d          23.444  33.382  28.187  0.00  0.00    -0.286 OA
ATOM     18  C27 UNK d          22.880  33.861  29.156  0.00  0.00     0.005 A 
ATOM     19  C14 UNK d          23.527  33.341  29.791  0.00  0.00     0.106 A 
ATOM     20  C32 UNK d          22.597  34.101  29.634  0.00  0.00     0.000 A 
ATOM     21  C34 UNK d          22.781  33.961  30.192  0.00  0.00     0.002 A 
ATOM     22  C29 UNK d          23.247  33.579  30.276  0.00  0.00     0.025 A 
ATOM     23  O9  UNK d          23.997  32.957  29.873  0.00  0.00    -0.273 OA
ATOM     24  C7  UNK d          24.277  32.719  29.388  0.00  0.00     0.303 A 
ATOM     25  O17 UNK d          24.596  32.462  29.692  0.00  0.00    -0.259 OA
ENDBRANCH   1  14
BRANCH   1  26
ATOM     26  C12 UNK d          24.177  32.090  28.115  0.00  0.00     0.003 A 
ATOM     27  C15 UNK d          24.331  31.568  28.378  0.00  0.00     0.026 A 
ATOM     28  C16 UNK d          24.130  31.046  28.138  0.00  0.00     0.119 A 
ATOM     29  O20 UNK d          24.216  30.460  28.309  0.00  0.00    -0.300 OA
ATOM     30  C19 UNK d          23.781  31.047  27.642  0.00  0.00     0.119 A 
ATOM     31  C22 UNK d          23.917  30.107  27.915  0.00  0.00     0.304 A 
ATOM     32  O21 UNK d          23.646  30.466  27.501  0.00  0.00    -0.300 OA
ATOM     33  C26 UNK d          23.626  31.575  27.378  0.00  0.00     0.026 A 
ATOM     34  C23 UNK d          23.825  32.098  27.616  0.00  0.00     0.002 A 
ENDBRANCH   1  26
TORSDOF 3
ENDMDL
MODEL 4
REMARK VINA RESULT:      -4.2      0.573      3.144
REMARK  3 active torsions:
REMARK  status: ('A' for Active; 'I' for Inactive)
REMARK    1  A    between atoms: C1_1  and  C5_5 
REMARK    2  A    between atoms: C2_2  and  C5_5 
REMARK    3  A    between atoms: C5_5  and  C12_12 
ROOT
ATOM      1  C5  UNK d          24.379  32.711  28.357  0.00  0.00     0.017 C 
ENDROOT
BRANCH   1   2
ATOM      2  C1  UNK d          24.193  32.188  28.111  0.00  0.00     0.103 A 
ATOM      3  C3  UNK d          24.396  31.653  28.332  0.00  0.00     0.203 A 
ATOM      4  C10 UNK d          24.210  31.139  28.086  0.00  0.00     0.062 A 
ATOM      5  O25 UNK d          24.779  31.649  28.794  0.00  0.00    -0.286 OA
ATOM      6  C28 UNK d          24.413  30.612  28.307  0.00  0.00     0.005 A 
ATOM      7  C13 UNK d          23.822  31.144  27.618  0.00  0.00     0.106 A 
ATOM      8  C31 UNK d          24.227  30.089  28.061  0.00  0.00     0.000 A 
ATOM      9  C33 UNK d          23.844  30.094  27.599  0.00  0.00     0.002 A 
ATOM     10  C30 UNK d          23.639  30.621  27.375  0.00  0.00     0.025 A 
ATOM     11  O8  UNK d          23.622  31.663  27.400  0.00  0.00    -0.273 OA
ATOM     12  C6  UNK d          23.805  32.193  27.643  0.00  0.00     0.303 A 
ATOM     13  O18 UNK d          23.622  32.607  27.442  0.00  0.00    -0.259 OA
ENDBRANCH   1   2
BRANCH   1  14
ATOM     14  C2  UNK d          24.101  32.932  28.847  0.00  0.00     0.103 A 
ATOM     15  C4  UNK d          23.626  33.307  28.792  0.00  0.00     0.203 A 
ATOM     16  C11 UNK d          23.349  33.528  29.282  0.00  0.00     0.062 A 
ATOM     17  O24 UNK d          23.430  33.461  28.232  0.00  0.00    -0.286 OA
ATOM     18  C27 UNK d          22.877  33.901  29.225  0.00  0.00     0.005 A 
ATOM     19  C14 UNK d          23.545  33.374  29.832  0.00  0.00     0.106 A 
ATOM     20  C32 UNK d          22.599  34.122  29.715  0.00  0.00     0.000 A 
ATOM     21  C34 UNK d          22.795  33.968  30.265  0.00  0.00     0.002 A 
ATOM     22  C29 UNK d          23.270  33.593  30.329  0.00  0.00     0.025 A 
ATOM     23  O9  UNK d          24.023  32.997  29.894  0.00  0.00    -0.273 OA
ATOM     24  C7  UNK d          24.298  32.778  29.397  0.00  0.00     0.303 A 
ATOM     25  O17 UNK d          24.627  32.518  29.688  0.00  0.00    -0.259 OA
ENDBRANCH   1  14
BRANCH   1  26
ATOM     26  C12 UNK d          24.849  33.017  28.110  0.00  0.00     0.003 A 
ATOM     27  C15 UNK d          25.401  32.963  28.350  0.00  0.00     0.026 A 
ATOM     28  C16 UNK d          25.863  33.270  28.099  0.00  0.00     0.119 A 
ATOM     29  O20 UNK d          26.461  33.298  28.247  0.00  0.00    -0.300 OA
ATOM     30  C19 UNK d          25.774  33.625  27.616  0.00  0.00     0.119 A 
ATOM     31  C22 UNK d          26.732  33.672  27.852  0.00  0.00     0.304 A 
ATOM     32  O21 UNK d          26.310  33.876  27.460  0.00  0.00    -0.300 OA
ATOM     33  C26 UNK d          25.216  33.679  27.375  0.00  0.00     0.026 A 
ATOM     34  C23 UNK d          24.752  33.374  27.623  0.00  0.00     0.002 A 
ENDBRANCH   1  26
TORSDOF 3
ENDMDL
MODEL 5
REMARK VINA RESULT:      -3.9      1.351      2.057
REMARK  3 active torsions:
REMARK  status: ('A' for Active; 'I' for Inactive)
REMARK    1  A    between atoms: C1_1  and  C5_5 
REMARK    2  A    between atoms: C2_2  and  C5_5 
REMARK    3  A    between atoms: C5_5  and  C12_12 
ROOT
ATOM      1  C5  UNK d          24.379  31.507  28.411  0.00  0.00     0.017 C 
ENDROOT
BRANCH   1   2
ATOM      2  C1  UNK d          24.981  31.453  28.356  0.00  0.00     0.103 A 
ATOM      3  C3  UNK d          25.329  31.358  28.852  0.00  0.00     0.203 A 
ATOM      4  C10 UNK d          25.924  31.305  28.794  0.00  0.00     0.062 A 
ATOM      5  O25 UNK d          25.072  31.319  29.393  0.00  0.00    -0.286 OA
ATOM      6  C28 UNK d          26.265  31.211  29.287  0.00  0.00     0.005 A 
ATOM      7  C13 UNK d          26.185  31.344  28.246  0.00  0.00     0.106 A 
ATOM      8  C31 UNK d          26.866  31.156  29.232  0.00  0.00     0.000 A 
ATOM      9  C33 UNK d          27.124  31.195  28.691  0.00  0.00     0.002 A 
ATOM     10  C30 UNK d          26.785  31.289  28.195  0.00  0.00     0.025 A 
ATOM     11  O8  UNK d          25.849  31.437  27.760  0.00  0.00    -0.273 OA
ATOM     12  C6  UNK d          25.242  31.492  27.808  0.00  0.00     0.303 A 
ATOM     13  O18 UNK d          24.990  31.568  27.388  0.00  0.00    -0.259 OA
ENDBRANCH   1   2
BRANCH   1  14
ATOM     14  C2  UNK d          24.029  31.015  28.423  0.00  0.00     0.103 A 
ATOM     15  C4  UNK d          23.802  30.782  27.909  0.00  0.00     0.203 A 
ATOM     16  C11 UNK d          23.452  30.289  27.921  0.00  0.00     0.062 A 
ATOM     17  O24 UNK d          23.931  31.054  27.375  0.00  0.00    -0.286 OA
ATOM     18  C27 UNK d          23.226  30.060  27.409  0.00  0.00     0.005 A 
ATOM     19  C14 UNK d          23.326  30.024  28.449  0.00  0.00     0.106 A 
ATOM     20  C32 UNK d          22.876  29.567  27.422  0.00  0.00     0.000 A 
ATOM     21  C34 UNK d          22.751  29.302  27.950  0.00  0.00     0.002 A 
ATOM     22  C29 UNK d          22.975  29.528  28.469  0.00  0.00     0.025 A 
ATOM     23  O9  UNK d          23.552  30.253  28.970  0.00  0.00    -0.273 OA
ATOM     24  C7  UNK d          23.904  30.749  28.951  0.00  0.00     0.303 A 
ATOM     25  O17 UNK d          23.957  30.737  29.458  0.00  0.00    -0.259 OA
ENDBRANCH   1  14
BRANCH   1  26
ATOM     26  C12 UNK d          24.124  32.063  28.454  0.00  0.00     0.003 A 
ATOM     27  C15 UNK d          23.969  32.281  28.996  0.00  0.00     0.026 A 
ATOM     28  C16 UNK d          23.716  32.833  29.031  0.00  0.00     0.119 A 
ATOM     29  O20 UNK d          23.518  33.160  29.515  0.00  0.00    -0.300 OA
ATOM     30  C19 UNK d          23.619  33.162  28.531  0.00  0.00     0.119 A 
ATOM     31  C22 UNK d          23.301  33.688  29.306  0.00  0.00     0.304 A 
ATOM     32  O21 UNK d          23.362  33.693  28.697  0.00  0.00    -0.300 OA
ATOM     33  C26 UNK d          23.776  32.941  27.984  0.00  0.00     0.026 A 
ATOM     34  C23 UNK d          24.029  32.390  27.945  0.00  0.00     0.002 A 
ENDBRANCH   1  26
TORSDOF 3
ENDMDL
MODEL 6
REMARK VINA RESULT:      -3.9      1.595      2.982
REMARK  3 active torsions:
REMARK  status: ('A' for Active; 'I' for Inactive)
REMARK    1  A    between atoms: C1_1  and  C5_5 
REMARK    2  A    between atoms: C2_2  and  C5_5 
REMARK    3  A    between atoms: C5_5  and  C12_12 
ROOT
ATOM      1  C5  UNK d          25.954  34.424  28.604  0.00  0.00     0.017 C 
ENDROOT
BRANCH   1   2
ATOM      2  C1  UNK d          25.931  35.025  28.526  0.00  0.00     0.103 A 
ATOM      3  C3  UNK d          26.193  35.282  28.034  0.00  0.00     0.203 A 
ATOM      4  C10 UNK d          26.168  35.877  27.960  0.00  0.00     0.062 A 
ATOM      5  O25 UNK d          26.471  34.937  27.630  0.00  0.00    -0.286 OA
ATOM      6  C28 UNK d          26.428  36.128  27.473  0.00  0.00     0.005 A 
ATOM      7  C13 UNK d          25.886  36.227  28.370  0.00  0.00     0.106 A 
ATOM      8  C31 UNK d          26.405  36.729  27.395  0.00  0.00     0.000 A 
ATOM      9  C33 UNK d          26.127  37.075  27.799  0.00  0.00     0.002 A 
ATOM     10  C30 UNK d          25.866  36.826  28.289  0.00  0.00     0.025 A 
ATOM     11  O8  UNK d          25.631  35.980  28.850  0.00  0.00    -0.273 OA
ATOM     12  C6  UNK d          25.649  35.375  28.935  0.00  0.00     0.303 A 
ATOM     13  O18 UNK d          25.429  35.199  29.342  0.00  0.00    -0.259 OA
ENDBRANCH   1   2
BRANCH   1  14
ATOM     14  C2  UNK d          25.543  34.067  28.340  0.00  0.00     0.103 A 
ATOM     15  C4  UNK d          25.026  33.925  28.626  0.00  0.00     0.203 A 
ATOM     16  C11 UNK d          24.615  33.569  28.361  0.00  0.00     0.062 A 
ATOM     17  O24 UNK d          24.923  34.148  29.188  0.00  0.00    -0.286 OA
ATOM     18  C27 UNK d          24.101  33.428  28.647  0.00  0.00     0.005 A 
ATOM     19  C14 UNK d          24.719  33.351  27.808  0.00  0.00     0.106 A 
ATOM     20  C32 UNK d          23.690  33.072  28.383  0.00  0.00     0.000 A 
ATOM     21  C34 UNK d          23.794  32.854  27.829  0.00  0.00     0.002 A 
ATOM     22  C29 UNK d          24.310  32.992  27.536  0.00  0.00     0.025 A 
ATOM     23  O9  UNK d          25.238  33.490  27.515  0.00  0.00    -0.273 OA
ATOM     24  C7  UNK d          25.647  33.850  27.786  0.00  0.00     0.303 A 
ATOM     25  O17 UNK d          25.954  33.816  27.379  0.00  0.00    -0.259 OA
ENDBRANCH   1  14
BRANCH   1  26
ATOM     26  C12 UNK d          26.394  34.175  28.952  0.00  0.00     0.003 A 
ATOM     27  C15 UNK d          26.884  33.936  28.690  0.00  0.00     0.026 A 
ATOM     28  C16 UNK d          27.315  33.692  29.042  0.00  0.00     0.119 A 
ATOM     29  O20 UNK d          27.851  33.422  28.899  0.00  0.00    -0.300 OA
ATOM     30  C19 UNK d          27.259  33.686  29.646  0.00  0.00     0.119 A 
ATOM     31  C22 UNK d          28.118  33.254  29.419  0.00  0.00     0.304 A 
ATOM     32  O21 UNK d          27.754  33.415  29.883  0.00  0.00    -0.300 OA
ATOM     33  C26 UNK d          26.764  33.928  29.908  0.00  0.00     0.026 A 
ATOM     34  C23 UNK d          26.330  34.173  29.560  0.00  0.00     0.002 A 
ENDBRANCH   1  26
TORSDOF 3
ENDMDL
MODEL 7
REMARK VINA RESULT:      -3.8      1.546      2.934
REMARK  3 active torsions:
REMARK  status: ('A' for Active; 'I' for Inactive)
REMARK    1  A    between atoms: C1_1  and  C5_5 
REMARK    2  A    between atoms: C2_2  and  C5_5 
REMARK    3  A    between atoms: C5_5  and  C12_12 
ROOT
ATOM      1  C5  UNK d          26.077  34.321  28.366  0.00  0.00     0.017 C 
ENDROOT
BRANCH   1   2
ATOM      2  C1  UNK d          26.574  34.048  28.581  0.00  0.00     0.103 A 
ATOM      3  C3  UNK d          26.692  34.050  29.183  0.00  0.00     0.203 A 
ATOM      4  C10 UNK d          27.185  33.779  29.391  0.00  0.00     0.062 A 
ATOM      5  O25 UNK d          26.313  34.323  29.559  0.00  0.00    -0.286 OA
ATOM      6  C28 UNK d          27.298  33.783  29.987  0.00  0.00     0.005 A 
ATOM      7  C13 UNK d          27.569  33.502  29.010  0.00  0.00     0.106 A 
ATOM      8  C31 UNK d          27.795  33.509  30.202  0.00  0.00     0.000 A 
ATOM      9  C33 UNK d          28.174  33.236  29.826  0.00  0.00     0.002 A 
ATOM     10  C30 UNK d          28.063  33.230  29.228  0.00  0.00     0.025 A 
ATOM     11  O8  UNK d          27.458  33.497  28.423  0.00  0.00    -0.273 OA
ATOM     12  C6  UNK d          26.958  33.771  28.199  0.00  0.00     0.303 A 
ATOM     13  O18 UNK d          26.893  33.751  27.709  0.00  0.00    -0.259 OA
ENDBRANCH   1   2
BRANCH   1  14
ATOM     14  C2  UNK d          25.549  34.028  28.357  0.00  0.00     0.103 A 
ATOM     15  C4  UNK d          25.387  33.695  27.874  0.00  0.00     0.203 A 
ATOM     16  C11 UNK d          24.858  33.401  27.865  0.00  0.00     0.062 A 
ATOM     17  O24 UNK d          25.766  33.659  27.394  0.00  0.00    -0.286 OA
ATOM     18  C27 UNK d          24.699  33.070  27.385  0.00  0.00     0.005 A 
ATOM     19  C14 UNK d          24.487  33.438  28.340  0.00  0.00     0.106 A 
ATOM     20  C32 UNK d          24.170  32.777  27.376  0.00  0.00     0.000 A 
ATOM     21  C34 UNK d          23.799  32.814  27.851  0.00  0.00     0.002 A 
ATOM     22  C29 UNK d          23.953  33.145  28.337  0.00  0.00     0.025 A 
ATOM     23  O9  UNK d          24.644  33.771  28.829  0.00  0.00    -0.273 OA
ATOM     24  C7  UNK d          25.177  34.065  28.832  0.00  0.00     0.303 A 
ATOM     25  O17 UNK d          25.079  34.247  29.298  0.00  0.00    -0.259 OA
ENDBRANCH   1  14
BRANCH   1  26
ATOM     26  C12 UNK d          26.109  34.897  28.157  0.00  0.00     0.003 A 
ATOM     27  C15 UNK d          25.944  35.355  28.515  0.00  0.00     0.026 A 
ATOM     28  C16 UNK d          25.978  35.923  28.301  0.00  0.00     0.119 A 
ATOM     29  O20 UNK d          25.843  36.466  28.562  0.00  0.00    -0.300 OA
ATOM     30  C19 UNK d          26.174  36.032  27.737  0.00  0.00     0.119 A 
ATOM     31  C22 UNK d          25.957  36.901  28.154  0.00  0.00     0.304 A 
ATOM     32  O21 UNK d          26.162  36.637  27.642  0.00  0.00    -0.300 OA
ATOM     33  C26 UNK d          26.340  35.568  27.377  0.00  0.00     0.026 A 
ATOM     34  C23 UNK d          26.307  34.999  27.587  0.00  0.00     0.002 A 
ENDBRANCH   1  26
TORSDOF 3
ENDMDL
MODEL 8
REMARK VINA RESULT:      -3.8      1.576      3.487
REMARK  3 active torsions:
REMARK  status: ('A' for Active; 'I' for Inactive)
REMARK    1  A    between atoms: C1_1  and  C5_5 
REMARK    2  A    between atoms: C2_2  and  C5_5 
REMARK    3  A    between atoms: C5_5  and  C12_12 
ROOT
ATOM      1  C5  UNK d          26.020  34.381  28.457  0.00  0.00     0.017 C 
ENDROOT
BRANCH   1   2
ATOM      2  C1  UNK d          25.587  34.026  28.222  0.00  0.00     0.103 A 
ATOM      3  C3  UNK d          25.078  33.907  28.542  0.00  0.00     0.203 A 
ATOM      4  C10 UNK d          24.652  33.555  28.307  0.00  0.00     0.062 A 
ATOM      5  O25 UNK d          25.009  34.143  29.089  0.00  0.00    -0.286 OA
ATOM      6  C28 UNK d          24.150  33.440  28.627  0.00  0.00     0.005 A 
ATOM      7  C13 UNK d          24.722  33.316  27.752  0.00  0.00     0.106 A 
ATOM      8  C31 UNK d          23.718  33.085  28.392  0.00  0.00     0.000 A 
ATOM      9  C33 UNK d          23.787  32.849  27.845  0.00  0.00     0.002 A 
ATOM     10  C30 UNK d          24.290  32.963  27.521  0.00  0.00     0.025 A 
ATOM     11  O8  UNK d          25.217  33.430  27.437  0.00  0.00    -0.273 OA
ATOM     12  C6  UNK d          25.657  33.786  27.667  0.00  0.00     0.303 A 
ATOM     13  O18 UNK d          26.056  33.863  27.383  0.00  0.00    -0.259 OA
ENDBRANCH   1   2
BRANCH   1  14
ATOM     14  C2  UNK d          26.441  34.146  28.822  0.00  0.00     0.103 A 
ATOM     15  C4  UNK d          26.963  33.931  28.596  0.00  0.00     0.203 A 
ATOM     16  C11 UNK d          27.384  33.696  28.961  0.00  0.00     0.062 A 
ATOM     17  O24 UNK d          27.059  33.954  27.991  0.00  0.00    -0.286 OA
ATOM     18  C27 UNK d          27.902  33.483  28.734  0.00  0.00     0.005 A 
ATOM     19  C14 UNK d          27.286  33.674  29.556  0.00  0.00     0.106 A 
ATOM     20  C32 UNK d          28.323  33.248  29.099  0.00  0.00     0.000 A 
ATOM     21  C34 UNK d          28.225  33.226  29.695  0.00  0.00     0.002 A 
ATOM     22  C29 UNK d          27.705  33.439  29.929  0.00  0.00     0.025 A 
ATOM     23  O9  UNK d          26.762  33.889  29.790  0.00  0.00    -0.273 OA
ATOM     24  C7  UNK d          26.343  34.124  29.417  0.00  0.00     0.303 A 
ATOM     25  O17 UNK d          26.037  34.220  29.815  0.00  0.00    -0.259 OA
ENDBRANCH   1  14
BRANCH   1  26
ATOM     26  C12 UNK d          26.031  34.979  28.324  0.00  0.00     0.003 A 
ATOM     27  C15 UNK d          25.806  35.378  28.719  0.00  0.00     0.026 A 
ATOM     28  C16 UNK d          25.821  35.970  28.581  0.00  0.00     0.119 A 
ATOM     29  O20 UNK d          25.627  36.466  28.892  0.00  0.00    -0.300 OA
ATOM     30  C19 UNK d          26.058  36.161  28.056  0.00  0.00     0.119 A 
ATOM     31  C22 UNK d          25.747  36.956  28.554  0.00  0.00     0.304 A 
ATOM     32  O21 UNK d          26.014  36.772  28.036  0.00  0.00    -0.300 OA
ATOM     33  C26 UNK d          26.285  35.757  27.659  0.00  0.00     0.026 A 
ATOM     34  C23 UNK d          26.272  35.164  27.793  0.00  0.00     0.002 A 
ENDBRANCH   1  26
TORSDOF 3
ENDMDL
MODEL 9
REMARK VINA RESULT:      -3.8      1.495      3.757
REMARK  3 active torsions:
REMARK  status: ('A' for Active; 'I' for Inactive)
REMARK    1  A    between atoms: C1_1  and  C5_5 
REMARK    2  A    between atoms: C2_2  and  C5_5 
REMARK    3  A    between atoms: C5_5  and  C12_12 
ROOT
ATOM      1  C5  UNK d          25.928  34.195  28.582  0.00  0.00     0.017 C 
ENDROOT
BRANCH   1   2
ATOM      2  C1  UNK d          25.401  33.909  28.488  0.00  0.00     0.103 A 
ATOM      3  C3  UNK d          25.343  33.515  28.021  0.00  0.00     0.203 A 
ATOM      4  C10 UNK d          24.820  33.234  27.932  0.00  0.00     0.062 A 
ATOM      5  O25 UNK d          25.809  33.412  27.658  0.00  0.00    -0.286 OA
ATOM      6  C28 UNK d          24.766  32.845  27.470  0.00  0.00     0.005 A 
ATOM      7  C13 UNK d          24.347  33.338  28.300  0.00  0.00     0.106 A 
ATOM      8  C31 UNK d          24.239  32.559  27.376  0.00  0.00     0.000 A 
ATOM      9  C33 UNK d          23.772  32.662  27.739  0.00  0.00     0.002 A 
ATOM     10  C30 UNK d          23.824  33.052  28.203  0.00  0.00     0.025 A 
ATOM     11  O8  UNK d          24.400  33.722  28.755  0.00  0.00    -0.273 OA
ATOM     12  C6  UNK d          24.928  34.013  28.856  0.00  0.00     0.303 A 
ATOM     13  O18 UNK d          24.943  34.325  29.240  0.00  0.00    -0.259 OA
ENDBRANCH   1   2
BRANCH   1  14
ATOM     14  C2  UNK d          26.055  34.705  28.283  0.00  0.00     0.103 A 
ATOM     15  C4  UNK d          25.906  35.246  28.516  0.00  0.00     0.203 A 
ATOM     16  C11 UNK d          26.033  35.756  28.217  0.00  0.00     0.062 A 
ATOM     17  O24 UNK d          25.624  35.271  29.060  0.00  0.00    -0.286 OA
ATOM     18  C27 UNK d          25.884  36.294  28.450  0.00  0.00     0.005 A 
ATOM     19  C14 UNK d          26.311  35.729  27.681  0.00  0.00     0.106 A 
ATOM     20  C32 UNK d          26.011  36.804  28.151  0.00  0.00     0.000 A 
ATOM     21  C34 UNK d          26.289  36.776  27.616  0.00  0.00     0.002 A 
ATOM     22  C29 UNK d          26.441  36.238  27.375  0.00  0.00     0.025 A 
ATOM     23  O9  UNK d          26.463  35.187  27.441  0.00  0.00    -0.273 OA
ATOM     24  C7  UNK d          26.333  34.677  27.747  0.00  0.00     0.303 A 
ATOM     25  O17 UNK d          26.540  34.395  27.375  0.00  0.00    -0.259 OA
ENDBRANCH   1  14
BRANCH   1  26
ATOM     26  C12 UNK d          26.334  33.967  28.981  0.00  0.00     0.003 A 
ATOM     27  C15 UNK d          26.802  33.641  28.779  0.00  0.00     0.026 A 
ATOM     28  C16 UNK d          27.200  33.418  29.181  0.00  0.00     0.119 A 
ATOM     29  O20 UNK d          27.709  33.077  29.104  0.00  0.00    -0.300 OA
ATOM     30  C19 UNK d          27.133  33.519  29.775  0.00  0.00     0.119 A 
ATOM     31  C22 UNK d          27.947  32.973  29.653  0.00  0.00     0.304 A 
ATOM     32  O21 UNK d          27.594  33.245  30.071  0.00  0.00    -0.300 OA
ATOM     33  C26 UNK d          26.660  33.849  29.977  0.00  0.00     0.026 A 
ATOM     34  C23 UNK d          26.260  34.073  29.578  0.00  0.00     0.002 A 
ENDBRANCH   1  26
TORSDOF 3
ENDMDL
