MODEL 1
REMARK VINA RESULT:      -1.5      0.000      0.000
REMARK  4 active torsions:
REMARK  status: ('A' for Active; 'I' for Inactive)
REMARK    1  A    between atoms: C2_2  and  C4_4 
REMARK    2  A    between atoms: C4_4  and  C6_6 
REMARK    3  A    between atoms: C6_6  and  C7_7 
REMARK    4  A    between atoms: C7_7  and  C9_9 
ROOT
ATOM      1  C7  UNK d          24.158  33.354  28.306  0.00  0.00     0.104 C 
ATOM      2  O8  UNK d          23.003  33.704  29.196  0.00  0.00    -0.195 OA
ENDROOT
BRANCH   1   3
ATOM      3  C6  UNK d          24.078  32.152  27.411  0.00  0.00     0.098 C 
BRANCH   3   4
ATOM      4  C4  UNK d          24.384  30.789  27.957  0.00  0.00     0.245 C 
ATOM      5  O5  UNK d          25.764  30.219  27.821  0.00  0.00    -0.211 OA
BRANCH   4   6
ATOM      6  C2  UNK d          23.308  29.996  28.639  0.00  0.00     0.218 C 
ATOM      7  O1  UNK d          22.881  30.354  30.031  0.00  0.00    -0.645 OA
ATOM      8  O3  UNK d          22.661  28.845  27.928  0.00  0.00    -0.645 OA
ENDBRANCH   4   6
ENDBRANCH   3   4
ENDBRANCH   1   3
BRANCH   1   9
ATOM      9  C9  UNK d          25.394  34.205  28.310  0.00  0.00    -0.023 A 
ATOM     10  C10 UNK d          25.499  35.370  29.249  0.00  0.00     0.024 A 
ATOM     11  C11 UNK d          26.734  36.221  29.253  0.00  0.00     0.004 A 
ATOM     12  C12 UNK d          27.864  35.907  28.318  0.00  0.00     0.001 A 
ATOM     13  C13 UNK d          27.759  34.742  27.379  0.00  0.00     0.004 A 
ATOM     14  C14 UNK d          26.524  33.891  27.375  0.00  0.00     0.024 A 
ENDBRANCH   1   9
TORSDOF 4
ENDMDL
MODEL 2
REMARK VINA RESULT:      -1.5      1.154      2.414
REMARK  4 active torsions:
REMARK  status: ('A' for Active; 'I' for Inactive)
REMARK    1  A    between atoms: C2_2  and  C4_4 
REMARK    2  A    between atoms: C4_4  and  C6_6 
REMARK    3  A    between atoms: C6_6  and  C7_7 
REMARK    4  A    between atoms: C7_7  and  C9_9 
ROOT
ATOM      1  C7  UNK d          24.153  32.802  28.739  0.00  0.00     0.104 C 
ATOM      2  O8  UNK d          23.546  32.406  30.052  0.00  0.00    -0.195 OA
ENDROOT
BRANCH   1   3
ATOM      3  C6  UNK d          23.998  31.911  27.542  0.00  0.00     0.098 C 
BRANCH   3   4
ATOM      4  C4  UNK d          24.082  30.422  27.699  0.00  0.00     0.245 C 
ATOM      5  O5  UNK d          22.851  29.632  28.030  0.00  0.00    -0.211 OA
BRANCH   4   6
ATOM      6  C2  UNK d          25.398  29.722  27.525  0.00  0.00     0.218 C 
ATOM      7  O1  UNK d          26.668  30.518  27.466  0.00  0.00    -0.645 OA
ATOM      8  O3  UNK d          25.443  28.228  27.411  0.00  0.00    -0.645 OA
ENDBRANCH   4   6
ENDBRANCH   3   4
ENDBRANCH   1   3
BRANCH   1   9
ATOM      9  C9  UNK d          24.916  34.088  28.623  0.00  0.00    -0.023 A 
ATOM     10  C10 UNK d          25.880  34.289  27.491  0.00  0.00     0.024 A 
ATOM     11  C11 UNK d          26.642  35.576  27.375  0.00  0.00     0.004 A 
ATOM     12  C12 UNK d          26.442  36.661  28.391  0.00  0.00     0.001 A 
ATOM     13  C13 UNK d          25.478  36.460  29.523  0.00  0.00     0.004 A 
ATOM     14  C14 UNK d          24.715  35.173  29.639  0.00  0.00     0.024 A 
ENDBRANCH   1   9
TORSDOF 4
ENDMDL
MODEL 3
REMARK VINA RESULT:      -1.4      2.378      5.491
REMARK  4 active torsions:
REMARK  status: ('A' for Active; 'I' for Inactive)
REMARK    1  A    between atoms: C2_2  and  C4_4 
REMARK    2  A    between atoms: C4_4  and  C6_6 
REMARK    3  A    between atoms: C6_6  and  C7_7 
REMARK    4  A    between atoms: C7_7  and  C9_9 
ROOT
ATOM      1  C7  UNK d          24.438  32.908  28.050  0.00  0.00     0.104 C 
ATOM      2  O8  UNK d          23.234  33.421  28.783  0.00  0.00    -0.195 OA
ENDROOT
BRANCH   1   3
ATOM      3  C6  UNK d          25.371  33.869  27.375  0.00  0.00     0.098 C 
BRANCH   3   4
ATOM      4  C4  UNK d          26.299  34.714  28.196  0.00  0.00     0.245 C 
ATOM      5  O5  UNK d          27.650  34.188  28.580  0.00  0.00    -0.211 OA
BRANCH   4   6
ATOM      6  C2  UNK d          25.877  36.086  28.633  0.00  0.00     0.218 C 
ATOM      7  O1  UNK d          26.399  37.295  27.916  0.00  0.00    -0.645 OA
ATOM      8  O3  UNK d          24.931  36.247  29.786  0.00  0.00    -0.645 OA
ENDBRANCH   4   6
ENDBRANCH   3   4
ENDBRANCH   1   3
BRANCH   1   9
ATOM      9  C9  UNK d          24.709  31.434  27.991  0.00  0.00    -0.023 A 
ATOM     10  C10 UNK d          26.038  30.897  28.432  0.00  0.00     0.024 A 
ATOM     11  C11 UNK d          26.308  29.423  28.373  0.00  0.00     0.004 A 
ATOM     12  C12 UNK d          25.250  28.485  27.872  0.00  0.00     0.001 A 
ATOM     13  C13 UNK d          23.920  29.022  27.431  0.00  0.00     0.004 A 
ATOM     14  C14 UNK d          23.650  30.496  27.490  0.00  0.00     0.024 A 
ENDBRANCH   1   9
TORSDOF 4
ENDMDL
MODEL 4
REMARK VINA RESULT:      -1.3      2.298      5.367
REMARK  4 active torsions:
REMARK  status: ('A' for Active; 'I' for Inactive)
REMARK    1  A    between atoms: C2_2  and  C4_4 
REMARK    2  A    between atoms: C4_4  and  C6_6 
REMARK    3  A    between atoms: C6_6  and  C7_7 
REMARK    4  A    between atoms: C7_7  and  C9_9 
ROOT
ATOM      1  C7  UNK d          25.854  32.249  27.539  0.00  0.00     0.104 C 
ATOM      2  O8  UNK d          27.345  32.225  27.375  0.00  0.00    -0.195 OA
ENDROOT
BRANCH   1   3
ATOM      3  C6  UNK d          25.117  33.555  27.507  0.00  0.00     0.098 C 
BRANCH   3   4
ATOM      4  C4  UNK d          25.196  34.490  28.677  0.00  0.00     0.245 C 
ATOM      5  O5  UNK d          26.403  35.362  28.860  0.00  0.00    -0.211 OA
BRANCH   4   6
ATOM      6  C2  UNK d          24.068  34.553  29.664  0.00  0.00     0.218 C 
ATOM      7  O1  UNK d          23.013  33.487  29.666  0.00  0.00    -0.645 OA
ATOM      8  O3  UNK d          23.996  35.682  30.648  0.00  0.00    -0.645 OA
ENDBRANCH   4   6
ENDBRANCH   3   4
ENDBRANCH   1   3
BRANCH   1   9
ATOM      9  C9  UNK d          25.100  30.967  27.736  0.00  0.00    -0.023 A 
ATOM     10  C10 UNK d          23.646  30.889  27.376  0.00  0.00     0.024 A 
ATOM     11  C11 UNK d          22.893  29.607  27.572  0.00  0.00     0.004 A 
ATOM     12  C12 UNK d          23.593  28.403  28.129  0.00  0.00     0.001 A 
ATOM     13  C13 UNK d          25.047  28.481  28.489  0.00  0.00     0.004 A 
ATOM     14  C14 UNK d          25.801  29.763  28.292  0.00  0.00     0.024 A 
ENDBRANCH   1   9
TORSDOF 4
ENDMDL
MODEL 5
REMARK VINA RESULT:      -1.3      2.385      5.348
REMARK  4 active torsions:
REMARK  status: ('A' for Active; 'I' for Inactive)
REMARK    1  A    between atoms: C2_2  and  C4_4 
REMARK    2  A    between atoms: C4_4  and  C6_6 
REMARK    3  A    between atoms: C6_6  and  C7_7 
REMARK    4  A    between atoms: C7_7  and  C9_9 
ROOT
ATOM      1  C7  UNK d          26.486  32.247  28.028  0.00  0.00     0.104 C 
ATOM      2  O8  UNK d          27.786  32.130  28.767  0.00  0.00    -0.195 OA
ENDROOT
BRANCH   1   3
ATOM      3  C6  UNK d          26.090  33.555  27.410  0.00  0.00     0.098 C 
BRANCH   3   4
ATOM      4  C4  UNK d          25.630  34.686  28.281  0.00  0.00     0.245 C 
ATOM      5  O5  UNK d          25.936  36.103  27.894  0.00  0.00    -0.211 OA
BRANCH   4   6
ATOM      6  C2  UNK d          24.865  34.402  29.539  0.00  0.00     0.218 C 
ATOM      7  O1  UNK d          25.588  34.290  30.849  0.00  0.00    -0.645 OA
ATOM      8  O3  UNK d          23.376  34.229  29.488  0.00  0.00    -0.645 OA
ENDBRANCH   4   6
ENDBRANCH   3   4
ENDBRANCH   1   3
BRANCH   1   9
ATOM      9  C9  UNK d          25.583  31.055  27.906  0.00  0.00    -0.023 A 
ATOM     10  C10 UNK d          26.129  29.675  28.124  0.00  0.00     0.024 A 
ATOM     11  C11 UNK d          25.226  28.483  28.002  0.00  0.00     0.004 A 
ATOM     12  C12 UNK d          23.777  28.672  27.662  0.00  0.00     0.001 A 
ATOM     13  C13 UNK d          23.232  30.052  27.444  0.00  0.00     0.004 A 
ATOM     14  C14 UNK d          24.135  31.244  27.566  0.00  0.00     0.024 A 
ENDBRANCH   1   9
TORSDOF 4
ENDMDL
MODEL 6
REMARK VINA RESULT:      -1.3      1.466      2.459
REMARK  4 active torsions:
REMARK  status: ('A' for Active; 'I' for Inactive)
REMARK    1  A    between atoms: C2_2  and  C4_4 
REMARK    2  A    between atoms: C4_4  and  C6_6 
REMARK    3  A    between atoms: C6_6  and  C7_7 
REMARK    4  A    between atoms: C7_7  and  C9_9 
ROOT
ATOM      1  C7  UNK d          25.045  34.147  28.402  0.00  0.00     0.104 C 
ATOM      2  O8  UNK d          24.237  34.278  29.660  0.00  0.00    -0.195 OA
ENDROOT
BRANCH   1   3
ATOM      3  C6  UNK d          24.672  33.120  27.375  0.00  0.00     0.098 C 
BRANCH   3   4
ATOM      4  C4  UNK d          24.632  31.667  27.747  0.00  0.00     0.245 C 
ATOM      5  O5  UNK d          23.418  30.845  27.431  0.00  0.00    -0.211 OA
BRANCH   4   6
ATOM      6  C2  UNK d          25.806  31.037  28.435  0.00  0.00     0.218 C 
ATOM      7  O1  UNK d          25.799  30.866  29.926  0.00  0.00    -0.645 OA
ATOM      8  O3  UNK d          26.988  30.577  27.633  0.00  0.00    -0.645 OA
ENDBRANCH   4   6
ENDBRANCH   3   4
ENDBRANCH   1   3
BRANCH   1   9
ATOM      9  C9  UNK d          26.225  35.044  28.172  0.00  0.00    -0.023 A 
ATOM     10  C10 UNK d          27.494  34.482  27.605  0.00  0.00     0.024 A 
ATOM     11  C11 UNK d          28.675  35.379  27.375  0.00  0.00     0.004 A 
ATOM     12  C12 UNK d          28.585  36.838  27.712  0.00  0.00     0.001 A 
ATOM     13  C13 UNK d          27.315  37.400  28.279  0.00  0.00     0.004 A 
ATOM     14  C14 UNK d          26.135  36.503  28.509  0.00  0.00     0.024 A 
ENDBRANCH   1   9
TORSDOF 4
ENDMDL
MODEL 7
REMARK VINA RESULT:      -1.3      1.733      2.975
REMARK  4 active torsions:
REMARK  status: ('A' for Active; 'I' for Inactive)
REMARK    1  A    between atoms: C2_2  and  C4_4 
REMARK    2  A    between atoms: C4_4  and  C6_6 
REMARK    3  A    between atoms: C6_6  and  C7_7 
REMARK    4  A    between atoms: C7_7  and  C9_9 
ROOT
ATOM      1  C7  UNK d          26.760  32.436  28.647  0.00  0.00     0.104 C 
ATOM      2  O8  UNK d          28.085  31.842  28.271  0.00  0.00    -0.195 OA
ENDROOT
BRANCH   1   3
ATOM      3  C6  UNK d          25.612  31.540  29.005  0.00  0.00     0.098 C 
BRANCH   3   4
ATOM      4  C4  UNK d          24.203  31.991  28.758  0.00  0.00     0.245 C 
ATOM      5  O5  UNK d          23.614  31.890  27.382  0.00  0.00    -0.211 OA
BRANCH   4   6
ATOM      6  C2  UNK d          23.384  32.544  29.886  0.00  0.00     0.218 C 
ATOM      7  O1  UNK d          22.964  33.984  29.873  0.00  0.00    -0.645 OA
ATOM      8  O3  UNK d          22.984  31.656  31.027  0.00  0.00    -0.645 OA
ENDBRANCH   4   6
ENDBRANCH   3   4
ENDBRANCH   1   3
BRANCH   1   9
ATOM      9  C9  UNK d          26.584  33.925  28.666  0.00  0.00    -0.023 A 
ATOM     10  C10 UNK d          26.469  34.683  27.377  0.00  0.00     0.024 A 
ATOM     11  C11 UNK d          26.292  36.173  27.395  0.00  0.00     0.004 A 
ATOM     12  C12 UNK d          26.230  36.904  28.703  0.00  0.00     0.001 A 
ATOM     13  C13 UNK d          26.345  36.146  29.993  0.00  0.00     0.004 A 
ATOM     14  C14 UNK d          26.522  34.657  29.974  0.00  0.00     0.024 A 
ENDBRANCH   1   9
TORSDOF 4
ENDMDL
MODEL 8
REMARK VINA RESULT:      -1.2      2.496      5.826
REMARK  4 active torsions:
REMARK  status: ('A' for Active; 'I' for Inactive)
REMARK    1  A    between atoms: C2_2  and  C4_4 
REMARK    2  A    between atoms: C4_4  and  C6_6 
REMARK    3  A    between atoms: C6_6  and  C7_7 
REMARK    4  A    between atoms: C7_7  and  C9_9 
ROOT
ATOM      1  C7  UNK d          25.816  32.524  27.715  0.00  0.00     0.104 C 
ATOM      2  O8  UNK d          27.225  32.068  27.479  0.00  0.00    -0.195 OA
ENDROOT
BRANCH   1   3
ATOM      3  C6  UNK d          25.416  33.930  27.375  0.00  0.00     0.098 C 
BRANCH   3   4
ATOM      4  C4  UNK d          25.692  35.043  28.342  0.00  0.00     0.245 C 
ATOM      5  O5  UNK d          24.785  35.256  29.518  0.00  0.00    -0.211 OA
BRANCH   4   6
ATOM      6  C2  UNK d          26.874  35.942  28.133  0.00  0.00     0.218 C 
ATOM      7  O1  UNK d          28.158  35.381  27.598  0.00  0.00    -0.645 OA
ATOM      8  O3  UNK d          26.771  37.403  28.459  0.00  0.00    -0.645 OA
ENDBRANCH   4   6
ENDBRANCH   3   4
ENDBRANCH   1   3
BRANCH   1   9
ATOM      9  C9  UNK d          24.806  31.576  28.291  0.00  0.00    -0.023 A 
ATOM     10  C10 UNK d          24.517  31.591  29.762  0.00  0.00     0.024 A 
ATOM     11  C11 UNK d          23.507  30.643  30.338  0.00  0.00     0.004 A 
ATOM     12  C12 UNK d          22.787  29.679  29.442  0.00  0.00     0.001 A 
ATOM     13  C13 UNK d          23.077  29.664  27.970  0.00  0.00     0.004 A 
ATOM     14  C14 UNK d          24.086  30.612  27.395  0.00  0.00     0.024 A 
ENDBRANCH   1   9
TORSDOF 4
ENDMDL
MODEL 9
REMARK VINA RESULT:      -1.2      2.350      5.307
REMARK  4 active torsions:
REMARK  status: ('A' for Active; 'I' for Inactive)
REMARK    1  A    between atoms: C2_2  and  C4_4 
REMARK    2  A    between atoms: C4_4  and  C6_6 
REMARK    3  A    between atoms: C6_6  and  C7_7 
REMARK    4  A    between atoms: C7_7  and  C9_9 
ROOT
ATOM      1  C7  UNK d          24.418  32.765  27.933  0.00  0.00     0.104 C 
ATOM      2  O8  UNK d          23.243  33.382  28.633  0.00  0.00    -0.195 OA
ENDROOT
BRANCH   1   3
ATOM      3  C6  UNK d          25.501  33.640  27.375  0.00  0.00     0.098 C 
BRANCH   3   4
ATOM      4  C4  UNK d          26.407  34.395  28.302  0.00  0.00     0.245 C 
ATOM      5  O5  UNK d          26.256  35.880  28.453  0.00  0.00    -0.211 OA
BRANCH   4   6
ATOM      6  C2  UNK d          27.463  33.666  29.078  0.00  0.00     0.218 C 
ATOM      7  O1  UNK d          27.125  33.036  30.396  0.00  0.00    -0.645 OA
ATOM      8  O3  UNK d          28.858  33.568  28.536  0.00  0.00    -0.645 OA
ENDBRANCH   4   6
ENDBRANCH   3   4
ENDBRANCH   1   3
BRANCH   1   9
ATOM      9  C9  UNK d          24.509  31.275  27.791  0.00  0.00    -0.023 A 
ATOM     10  C10 UNK d          23.275  30.432  27.922  0.00  0.00     0.024 A 
ATOM     11  C11 UNK d          23.367  28.942  27.780  0.00  0.00     0.004 A 
ATOM     12  C12 UNK d          24.692  28.294  27.507  0.00  0.00     0.001 A 
ATOM     13  C13 UNK d          25.926  29.137  27.376  0.00  0.00     0.004 A 
ATOM     14  C14 UNK d          25.834  30.627  27.518  0.00  0.00     0.024 A 
ENDBRANCH   1   9
TORSDOF 4
ENDMDL
