MODEL 1
REMARK VINA RESULT:      -2.6      0.000      0.000
REMARK  1 active torsions:
REMARK  status: ('A' for Active; 'I' for Inactive)
REMARK    1  A    between atoms: C1_1  and  C7_7 
ROOT
ATOM      1  C1  UNK d          24.363  33.408  28.760  0.00  0.00     0.102 A 
ATOM      2  C2  UNK d          25.052  33.820  28.568  0.00  0.00     0.203 A 
ATOM      3  C3  UNK d          23.808  33.732  29.275  0.00  0.00     0.303 A 
ATOM      4  O4  UNK d          23.955  34.481  29.596  0.00  0.00    -0.273 OA
ATOM      5  C5  UNK d          25.184  34.559  28.892  0.00  0.00     0.062 A 
ATOM      6  C6  UNK d          24.643  34.893  29.403  0.00  0.00     0.106 A 
ATOM      7  O8  UNK d          23.120  33.321  29.467  0.00  0.00    -0.259 OA
ATOM      8  O9  UNK d          25.602  33.484  28.049  0.00  0.00    -0.286 OA
ATOM      9  C10 UNK d          25.864  34.962  28.701  0.00  0.00     0.005 A 
ATOM     10  C11 UNK d          24.777  35.627  29.724  0.00  0.00     0.025 A 
ATOM     11  C14 UNK d          26.005  35.700  29.019  0.00  0.00     0.000 A 
ATOM     12  C15 UNK d          25.456  36.033  29.535  0.00  0.00     0.002 A 
ENDROOT
BRANCH   1  13
ATOM     13  C7  UNK d          24.229  32.662  28.433  0.00  0.00     0.008 A 
ATOM     14  C12 UNK d          24.462  31.983  28.849  0.00  0.00     0.000 A 
ATOM     15  C17 UNK d          24.329  31.241  28.526  0.00  0.00     0.000 A 
ATOM     16  C18 UNK d          23.963  31.165  27.784  0.00  0.00     0.000 A 
ATOM     17  C16 UNK d          23.735  31.844  27.376  0.00  0.00     0.000 A 
ATOM     18  C13 UNK d          23.868  32.593  27.701  0.00  0.00     0.000 A 
ENDBRANCH   1  13
TORSDOF 1
ENDMDL
MODEL 2
REMARK VINA RESULT:      -2.6      1.305      3.700
REMARK  1 active torsions:
REMARK  status: ('A' for Active; 'I' for Inactive)
REMARK    1  A    between atoms: C1_1  and  C7_7 
ROOT
ATOM      1  C1  UNK d          25.540  33.069  28.025  0.00  0.00     0.102 A 
ATOM      2  C2  UNK d          24.816  32.840  27.703  0.00  0.00     0.203 A 
ATOM      3  C3  UNK d          26.051  32.511  28.351  0.00  0.00     0.303 A 
ATOM      4  O4  UNK d          25.824  31.715  28.349  0.00  0.00    -0.273 OA
ATOM      5  C5  UNK d          24.603  32.049  27.707  0.00  0.00     0.062 A 
ATOM      6  C6  UNK d          25.099  31.487  28.027  0.00  0.00     0.106 A 
ATOM      7  O8  UNK d          26.775  32.739  28.673  0.00  0.00    -0.259 OA
ATOM      8  O9  UNK d          24.310  33.409  27.378  0.00  0.00    -0.286 OA
ATOM      9  C10 UNK d          23.889  31.828  27.389  0.00  0.00     0.005 A 
ATOM     10  C11 UNK d          24.885  30.703  28.030  0.00  0.00     0.025 A 
ATOM     11  C14 UNK d          23.668  31.043  27.389  0.00  0.00     0.000 A 
ATOM     12  C15 UNK d          24.172  30.477  27.712  0.00  0.00     0.002 A 
ENDROOT
BRANCH   1  13
ATOM     13  C7  UNK d          25.755  33.865  28.020  0.00  0.00     0.008 A 
ATOM     14  C12 UNK d          25.568  34.344  28.671  0.00  0.00     0.000 A 
ATOM     15  C17 UNK d          25.781  35.137  28.669  0.00  0.00     0.000 A 
ATOM     16  C18 UNK d          26.183  35.462  28.019  0.00  0.00     0.000 A 
ATOM     17  C16 UNK d          26.366  34.979  27.376  0.00  0.00     0.000 A 
ATOM     18  C13 UNK d          26.152  34.181  27.377  0.00  0.00     0.000 A 
ENDBRANCH   1  13
TORSDOF 1
ENDMDL
MODEL 3
REMARK VINA RESULT:      -2.5      1.359      3.392
REMARK  1 active torsions:
REMARK  status: ('A' for Active; 'I' for Inactive)
REMARK    1  A    between atoms: C1_1  and  C7_7 
ROOT
ATOM      1  C1  UNK d          24.014  34.418  29.658  0.00  0.00     0.102 A 
ATOM      2  C2  UNK d          23.628  33.783  29.299  0.00  0.00     0.203 A 
ATOM      3  C3  UNK d          24.742  34.682  29.376  0.00  0.00     0.303 A 
ATOM      4  O4  UNK d          25.079  34.297  28.726  0.00  0.00    -0.273 OA
ATOM      5  C5  UNK d          23.973  33.412  28.656  0.00  0.00     0.062 A 
ATOM      6  C6  UNK d          24.693  33.662  28.367  0.00  0.00     0.106 A 
ATOM      7  O8  UNK d          25.128  35.316  29.735  0.00  0.00    -0.259 OA
ATOM      8  O9  UNK d          22.897  33.526  29.589  0.00  0.00    -0.286 OA
ATOM      9  C10 UNK d          23.590  32.786  28.305  0.00  0.00     0.005 A 
ATOM     10  C11 UNK d          25.033  33.292  27.729  0.00  0.00     0.025 A 
ATOM     11  C14 UNK d          23.925  32.410  27.664  0.00  0.00     0.000 A 
ATOM     12  C15 UNK d          24.653  32.666  27.375  0.00  0.00     0.002 A 
ENDROOT
BRANCH   1  13
ATOM     13  C7  UNK d          23.667  34.793  30.305  0.00  0.00     0.008 A 
ATOM     14  C12 UNK d          23.833  34.524  31.073  0.00  0.00     0.000 A 
ATOM     15  C17 UNK d          23.489  34.895  31.719  0.00  0.00     0.000 A 
ATOM     16  C18 UNK d          22.976  35.539  31.609  0.00  0.00     0.000 A 
ATOM     17  C16 UNK d          22.816  35.801  30.843  0.00  0.00     0.000 A 
ATOM     18  C13 UNK d          23.162  35.427  30.192  0.00  0.00     0.000 A 
ENDBRANCH   1  13
TORSDOF 1
ENDMDL
MODEL 4
REMARK VINA RESULT:      -2.5      1.252      3.694
REMARK  1 active torsions:
REMARK  status: ('A' for Active; 'I' for Inactive)
REMARK    1  A    between atoms: C1_1  and  C7_7 
ROOT
ATOM      1  C1  UNK d          24.859  32.655  27.915  0.00  0.00     0.102 A 
ATOM      2  C2  UNK d          25.263  31.954  27.758  0.00  0.00     0.203 A 
ATOM      3  C3  UNK d          24.036  32.666  27.956  0.00  0.00     0.303 A 
ATOM      4  O4  UNK d          23.623  31.959  27.839  0.00  0.00    -0.273 OA
ATOM      5  C5  UNK d          24.842  31.261  27.644  0.00  0.00     0.062 A 
ATOM      6  C6  UNK d          24.028  31.257  27.683  0.00  0.00     0.106 A 
ATOM      7  O8  UNK d          23.631  33.368  28.113  0.00  0.00    -0.259 OA
ATOM      8  O9  UNK d          26.090  31.954  27.719  0.00  0.00    -0.286 OA
ATOM      9  C10 UNK d          25.245  30.571  27.490  0.00  0.00     0.005 A 
ATOM     10  C11 UNK d          23.613  30.568  27.569  0.00  0.00     0.025 A 
ATOM     11  C14 UNK d          24.835  29.876  27.375  0.00  0.00     0.000 A 
ATOM     12  C15 UNK d          24.012  29.877  27.415  0.00  0.00     0.002 A 
ENDROOT
BRANCH   1  13
ATOM     13  C7  UNK d          25.282  33.354  28.030  0.00  0.00     0.008 A 
ATOM     14  C12 UNK d          25.484  33.824  27.377  0.00  0.00     0.000 A 
ATOM     15  C17 UNK d          25.905  34.519  27.489  0.00  0.00     0.000 A 
ATOM     16  C18 UNK d          26.131  34.755  28.253  0.00  0.00     0.000 A 
ATOM     17  C16 UNK d          25.926  34.283  28.898  0.00  0.00     0.000 A 
ATOM     18  C13 UNK d          25.502  33.582  28.785  0.00  0.00     0.000 A 
ENDBRANCH   1  13
TORSDOF 1
ENDMDL
MODEL 5
REMARK VINA RESULT:      -1.7      0.907      3.369
REMARK  1 active torsions:
REMARK  status: ('A' for Active; 'I' for Inactive)
REMARK    1  A    between atoms: C1_1  and  C7_7 
ROOT
ATOM      1  C1  UNK d          25.419  34.530  28.579  0.00  0.00     0.102 A 
ATOM      2  C2  UNK d          25.394  33.965  27.978  0.00  0.00     0.203 A 
ATOM      3  C3  UNK d          24.854  34.532  29.179  0.00  0.00     0.303 A 
ATOM      4  O4  UNK d          24.261  33.955  29.166  0.00  0.00    -0.273 OA
ATOM      5  C5  UNK d          24.801  33.401  27.978  0.00  0.00     0.062 A 
ATOM      6  C6  UNK d          24.236  33.391  28.565  0.00  0.00     0.106 A 
ATOM      7  O8  UNK d          24.879  35.096  29.780  0.00  0.00    -0.259 OA
ATOM      8  O9  UNK d          25.967  33.973  27.381  0.00  0.00    -0.286 OA
ATOM      9  C10 UNK d          24.780  32.846  27.384  0.00  0.00     0.005 A 
ATOM     10  C11 UNK d          23.649  32.829  28.562  0.00  0.00     0.025 A 
ATOM     11  C14 UNK d          24.194  32.279  27.375  0.00  0.00     0.000 A 
ATOM     12  C15 UNK d          23.625  32.273  27.970  0.00  0.00     0.002 A 
ENDROOT
BRANCH   1  13
ATOM     13  C7  UNK d          26.016  35.099  28.580  0.00  0.00     0.008 A 
ATOM     14  C12 UNK d          26.724  34.951  28.987  0.00  0.00     0.000 A 
ATOM     15  C17 UNK d          27.319  35.516  28.989  0.00  0.00     0.000 A 
ATOM     16  C18 UNK d          27.217  36.235  28.586  0.00  0.00     0.000 A 
ATOM     17  C16 UNK d          26.511  36.376  28.184  0.00  0.00     0.000 A 
ATOM     18  C13 UNK d          25.910  35.807  28.181  0.00  0.00     0.000 A 
ENDBRANCH   1  13
TORSDOF 1
ENDMDL
MODEL 6
REMARK VINA RESULT:      -0.3      1.118      1.597
REMARK  1 active torsions:
REMARK  status: ('A' for Active; 'I' for Inactive)
REMARK    1  A    between atoms: C1_1  and  C7_7 
ROOT
ATOM      1  C1  UNK d          24.776  32.792  28.025  0.00  0.00     0.102 A 
ATOM      2  C2  UNK d          25.530  32.872  27.700  0.00  0.00     0.203 A 
ATOM      3  C3  UNK d          24.387  33.441  28.352  0.00  0.00     0.303 A 
ATOM      4  O4  UNK d          24.768  34.176  28.346  0.00  0.00    -0.273 OA
ATOM      5  C5  UNK d          25.895  33.604  27.701  0.00  0.00     0.062 A 
ATOM      6  C6  UNK d          25.522  34.255  28.021  0.00  0.00     0.106 A 
ATOM      7  O8  UNK d          23.633  33.362  28.677  0.00  0.00    -0.259 OA
ATOM      8  O9  UNK d          25.911  32.213  27.375  0.00  0.00    -0.286 OA
ATOM      9  C10 UNK d          26.638  33.679  27.380  0.00  0.00     0.005 A 
ATOM     10  C11 UNK d          25.888  34.981  28.021  0.00  0.00     0.025 A 
ATOM     11  C14 UNK d          27.011  34.405  27.376  0.00  0.00     0.000 A 
ATOM     12  C15 UNK d          26.630  35.059  27.700  0.00  0.00     0.002 A 
ENDROOT
BRANCH   1  13
ATOM     13  C7  UNK d          24.407  32.054  28.024  0.00  0.00     0.008 A 
ATOM     14  C12 UNK d          23.936  31.832  27.378  0.00  0.00     0.000 A 
ATOM     15  C17 UNK d          23.568  31.098  27.375  0.00  0.00     0.000 A 
ATOM     16  C18 UNK d          23.664  30.577  28.015  0.00  0.00     0.000 A 
ATOM     17  C16 UNK d          24.134  30.805  28.654  0.00  0.00     0.000 A 
ATOM     18  C13 UNK d          24.505  31.544  28.658  0.00  0.00     0.000 A 
ENDBRANCH   1  13
TORSDOF 1
ENDMDL
