MODEL 1
REMARK VINA RESULT:      -4.3      0.000      0.000
REMARK  3 active torsions:
REMARK  status: ('A' for Active; 'I' for Inactive)
REMARK    1  A    between atoms: C1_1  and  C5_5 
REMARK    2  A    between atoms: C2_2  and  C5_5 
REMARK    3  A    between atoms: C5_5  and  C12_12 
ROOT
ATOM      1  C5  UNK d          24.376  32.622  28.353  0.00  0.00     0.017 C 
ENDROOT
BRANCH   1   2
ATOM      2  C1  UNK d          24.851  32.909  28.108  0.00  0.00     0.103 A 
ATOM      3  C3  UNK d          25.415  32.822  28.334  0.00  0.00     0.203 A 
ATOM      4  C10 UNK d          25.882  33.107  28.089  0.00  0.00     0.062 A 
ATOM      5  O25 UNK d          25.495  32.452  28.800  0.00  0.00    -0.286 OA
ATOM      6  C28 UNK d          26.438  33.019  28.315  0.00  0.00     0.005 A 
ATOM      7  C13 UNK d          25.801  33.482  27.617  0.00  0.00     0.106 A 
ATOM      8  C31 UNK d          26.913  33.306  28.070  0.00  0.00     0.000 A 
ATOM      9  C33 UNK d          26.833  33.676  27.605  0.00  0.00     0.002 A 
ATOM     10  C30 UNK d          26.277  33.766  27.375  0.00  0.00     0.025 A 
ATOM     11  O8  UNK d          25.254  33.569  27.394  0.00  0.00    -0.273 OA
ATOM     12  C6  UNK d          24.770  33.284  27.636  0.00  0.00     0.303 A 
ATOM     13  O18 UNK d          24.329  33.375  27.430  0.00  0.00    -0.259 OA
ENDBRANCH   1   2
BRANCH   1  14
ATOM     14  C2  UNK d          24.095  32.856  28.835  0.00  0.00     0.103 A 
ATOM     15  C4  UNK d          23.626  33.236  28.767  0.00  0.00     0.203 A 
ATOM     16  C11 UNK d          23.346  33.470  29.248  0.00  0.00     0.062 A 
ATOM     17  O24 UNK d          23.439  33.382  28.201  0.00  0.00    -0.286 OA
ATOM     18  C27 UNK d          22.879  33.849  29.178  0.00  0.00     0.005 A 
ATOM     19  C14 UNK d          23.533  33.325  29.804  0.00  0.00     0.106 A 
ATOM     20  C32 UNK d          22.598  34.083  29.660  0.00  0.00     0.000 A 
ATOM     21  C34 UNK d          22.786  33.937  30.216  0.00  0.00     0.002 A 
ATOM     22  C29 UNK d          23.255  33.557  30.293  0.00  0.00     0.025 A 
ATOM     23  O9  UNK d          24.004  32.942  29.880  0.00  0.00    -0.273 OA
ATOM     24  C7  UNK d          24.283  32.711  29.391  0.00  0.00     0.303 A 
ATOM     25  O17 UNK d          24.605  32.452  29.691  0.00  0.00    -0.259 OA
ENDBRANCH   1  14
BRANCH   1  26
ATOM     26  C12 UNK d          24.179  32.094  28.113  0.00  0.00     0.003 A 
ATOM     27  C15 UNK d          24.338  31.570  28.370  0.00  0.00     0.026 A 
ATOM     28  C16 UNK d          24.138  31.050  28.126  0.00  0.00     0.119 A 
ATOM     29  O20 UNK d          24.228  30.462  28.290  0.00  0.00    -0.300 OA
ATOM     30  C19 UNK d          23.785  31.053  27.633  0.00  0.00     0.119 A 
ATOM     31  C22 UNK d          23.928  30.111  27.895  0.00  0.00     0.304 A 
ATOM     32  O21 UNK d          23.652  30.473  27.487  0.00  0.00    -0.300 OA
ATOM     33  C26 UNK d          23.625  31.582  27.375  0.00  0.00     0.026 A 
ATOM     34  C23 UNK d          23.823  32.104  27.616  0.00  0.00     0.002 A 
ENDBRANCH   1  26
TORSDOF 3
ENDMDL
MODEL 2
REMARK VINA RESULT:      -4.2      0.663      2.583
REMARK  3 active torsions:
REMARK  status: ('A' for Active; 'I' for Inactive)
REMARK    1  A    between atoms: C1_1  and  C5_5 
REMARK    2  A    between atoms: C2_2  and  C5_5 
REMARK    3  A    between atoms: C5_5  and  C12_12 
ROOT
ATOM      1  C5  UNK d          24.379  32.872  28.612  0.00  0.00     0.017 C 
ENDROOT
BRANCH   1   2
ATOM      2  C1  UNK d          24.928  33.107  28.501  0.00  0.00     0.103 A 
ATOM      3  C3  UNK d          25.005  33.509  28.045  0.00  0.00     0.203 A 
ATOM      4  C10 UNK d          25.548  33.739  27.938  0.00  0.00     0.062 A 
ATOM      5  O25 UNK d          24.535  33.670  27.708  0.00  0.00    -0.286 OA
ATOM      6  C28 UNK d          25.621  34.137  27.486  0.00  0.00     0.005 A 
ATOM      7  C13 UNK d          26.024  33.576  28.280  0.00  0.00     0.106 A 
ATOM      8  C31 UNK d          26.169  34.372  27.375  0.00  0.00     0.000 A 
ATOM      9  C33 UNK d          26.639  34.211  27.712  0.00  0.00     0.002 A 
ATOM     10  C30 UNK d          26.569  33.812  28.167  0.00  0.00     0.025 A 
ATOM     11  O8  UNK d          25.954  33.184  28.725  0.00  0.00    -0.273 OA
ATOM     12  C6  UNK d          25.404  32.944  28.843  0.00  0.00     0.303 A 
ATOM     13  O18 UNK d          25.375  32.622  29.218  0.00  0.00    -0.259 OA
ENDBRANCH   1   2
BRANCH   1  14
ATOM     14  C2  UNK d          24.189  32.387  28.306  0.00  0.00     0.103 A 
ATOM     15  C4  UNK d          24.290  31.826  28.518  0.00  0.00     0.203 A 
ATOM     16  C11 UNK d          24.099  31.341  28.211  0.00  0.00     0.062 A 
ATOM     17  O24 UNK d          24.589  31.757  29.048  0.00  0.00    -0.286 OA
ATOM     18  C27 UNK d          24.200  30.784  28.424  0.00  0.00     0.005 A 
ATOM     19  C14 UNK d          23.805  31.414  27.689  0.00  0.00     0.106 A 
ATOM     20  C32 UNK d          24.010  30.299  28.117  0.00  0.00     0.000 A 
ATOM     21  C34 UNK d          23.716  30.372  27.594  0.00  0.00     0.002 A 
ATOM     22  C29 UNK d          23.610  30.930  27.375  0.00  0.00     0.025 A 
ATOM     23  O9  UNK d          23.700  31.975  27.470  0.00  0.00    -0.273 OA
ATOM     24  C7  UNK d          23.895  32.459  27.783  0.00  0.00     0.303 A 
ATOM     25  O17 UNK d          23.704  32.772  27.428  0.00  0.00    -0.259 OA
ENDBRANCH   1  14
BRANCH   1  26
ATOM     26  C12 UNK d          24.016  33.126  29.036  0.00  0.00     0.003 A 
ATOM     27  C15 UNK d          23.572  33.499  28.866  0.00  0.00     0.026 A 
ATOM     28  C16 UNK d          23.216  33.747  29.292  0.00  0.00     0.119 A 
ATOM     29  O20 UNK d          22.738  34.135  29.248  0.00  0.00    -0.300 OA
ATOM     30  C19 UNK d          23.303  33.625  29.879  0.00  0.00     0.119 A 
ATOM     31  C22 UNK d          22.537  34.246  29.810  0.00  0.00     0.304 A 
ATOM     32  O21 UNK d          22.884  33.932  30.204  0.00  0.00    -0.300 OA
ATOM     33  C26 UNK d          23.752  33.248  30.050  0.00  0.00     0.026 A 
ATOM     34  C23 UNK d          24.110  32.998  29.627  0.00  0.00     0.002 A 
ENDBRANCH   1  26
TORSDOF 3
ENDMDL
MODEL 3
REMARK VINA RESULT:      -4.2      0.500      2.305
REMARK  3 active torsions:
REMARK  status: ('A' for Active; 'I' for Inactive)
REMARK    1  A    between atoms: C1_1  and  C5_5 
REMARK    2  A    between atoms: C2_2  and  C5_5 
REMARK    3  A    between atoms: C5_5  and  C12_12 
ROOT
ATOM      1  C5  UNK d          24.378  32.710  28.356  0.00  0.00     0.017 C 
ENDROOT
BRANCH   1   2
ATOM      2  C1  UNK d          24.192  32.188  28.110  0.00  0.00     0.103 A 
ATOM      3  C3  UNK d          24.393  31.652  28.332  0.00  0.00     0.203 A 
ATOM      4  C10 UNK d          24.206  31.138  28.086  0.00  0.00     0.062 A 
ATOM      5  O25 UNK d          24.776  31.647  28.794  0.00  0.00    -0.286 OA
ATOM      6  C28 UNK d          24.408  30.611  28.309  0.00  0.00     0.005 A 
ATOM      7  C13 UNK d          23.819  31.143  27.618  0.00  0.00     0.106 A 
ATOM      8  C31 UNK d          24.221  30.088  28.063  0.00  0.00     0.000 A 
ATOM      9  C33 UNK d          23.838  30.093  27.600  0.00  0.00     0.002 A 
ATOM     10  C30 UNK d          23.635  30.621  27.375  0.00  0.00     0.025 A 
ATOM     11  O8  UNK d          23.620  31.662  27.398  0.00  0.00    -0.273 OA
ATOM     12  C6  UNK d          23.804  32.193  27.642  0.00  0.00     0.303 A 
ATOM     13  O18 UNK d          23.623  32.607  27.439  0.00  0.00    -0.259 OA
ENDBRANCH   1   2
BRANCH   1  14
ATOM     14  C2  UNK d          24.101  32.931  28.845  0.00  0.00     0.103 A 
ATOM     15  C4  UNK d          23.626  33.307  28.790  0.00  0.00     0.203 A 
ATOM     16  C11 UNK d          23.349  33.528  29.280  0.00  0.00     0.062 A 
ATOM     17  O24 UNK d          23.429  33.460  28.230  0.00  0.00    -0.286 OA
ATOM     18  C27 UNK d          22.876  33.902  29.223  0.00  0.00     0.005 A 
ATOM     19  C14 UNK d          23.545  33.375  29.830  0.00  0.00     0.106 A 
ATOM     20  C32 UNK d          22.599  34.123  29.713  0.00  0.00     0.000 A 
ATOM     21  C34 UNK d          22.796  33.970  30.263  0.00  0.00     0.002 A 
ATOM     22  C29 UNK d          23.271  33.595  30.327  0.00  0.00     0.025 A 
ATOM     23  O9  UNK d          24.023  32.998  29.893  0.00  0.00    -0.273 OA
ATOM     24  C7  UNK d          24.297  32.778  29.396  0.00  0.00     0.303 A 
ATOM     25  O17 UNK d          24.627  32.519  29.687  0.00  0.00    -0.259 OA
ENDBRANCH   1  14
BRANCH   1  26
ATOM     26  C12 UNK d          24.849  33.015  28.108  0.00  0.00     0.003 A 
ATOM     27  C15 UNK d          25.402  32.958  28.346  0.00  0.00     0.026 A 
ATOM     28  C16 UNK d          25.863  33.264  28.095  0.00  0.00     0.119 A 
ATOM     29  O20 UNK d          26.462  33.289  28.241  0.00  0.00    -0.300 OA
ATOM     30  C19 UNK d          25.774  33.622  27.614  0.00  0.00     0.119 A 
ATOM     31  C22 UNK d          26.733  33.664  27.847  0.00  0.00     0.304 A 
ATOM     32  O21 UNK d          26.311  33.872  27.457  0.00  0.00    -0.300 OA
ATOM     33  C26 UNK d          25.215  33.679  27.375  0.00  0.00     0.026 A 
ATOM     34  C23 UNK d          24.751  33.374  27.623  0.00  0.00     0.002 A 
ENDBRANCH   1  26
TORSDOF 3
ENDMDL
MODEL 4
REMARK VINA RESULT:      -4.2      0.564      2.895
REMARK  3 active torsions:
REMARK  status: ('A' for Active; 'I' for Inactive)
REMARK    1  A    between atoms: C1_1  and  C5_5 
REMARK    2  A    between atoms: C2_2  and  C5_5 
REMARK    3  A    between atoms: C5_5  and  C12_12 
ROOT
ATOM      1  C5  UNK d          24.336  32.728  28.448  0.00  0.00     0.017 C 
ENDROOT
BRANCH   1   2
ATOM      2  C1  UNK d          23.932  33.060  28.755  0.00  0.00     0.103 A 
ATOM      3  C3  UNK d          23.984  33.123  29.363  0.00  0.00     0.203 A 
ATOM      4  C10 UNK d          23.582  33.452  29.664  0.00  0.00     0.062 A 
ATOM      5  O25 UNK d          24.436  32.855  29.653  0.00  0.00    -0.286 OA
ATOM      6  C28 UNK d          23.636  33.512  30.266  0.00  0.00     0.005 A 
ATOM      7  C13 UNK d          23.124  33.723  29.371  0.00  0.00     0.106 A 
ATOM      8  C31 UNK d          23.232  33.844  30.573  0.00  0.00     0.000 A 
ATOM      9  C33 UNK d          22.780  34.111  30.284  0.00  0.00     0.002 A 
ATOM     10  C30 UNK d          22.723  34.053  29.680  0.00  0.00     0.025 A 
ATOM     11  O8  UNK d          23.070  33.664  28.778  0.00  0.00    -0.273 OA
ATOM     12  C6  UNK d          23.474  33.331  28.462  0.00  0.00     0.303 A 
ATOM     13  O18 UNK d          23.404  33.300  27.972  0.00  0.00    -0.259 OA
ENDBRANCH   1   2
BRANCH   1  14
ATOM     14  C2  UNK d          24.266  32.130  28.400  0.00  0.00     0.103 A 
ATOM     15  C4  UNK d          23.956  31.889  27.935  0.00  0.00     0.203 A 
ATOM     16  C11 UNK d          23.885  31.291  27.888  0.00  0.00     0.062 A 
ATOM     17  O24 UNK d          23.714  32.262  27.513  0.00  0.00    -0.286 OA
ATOM     18  C27 UNK d          23.576  31.054  27.425  0.00  0.00     0.005 A 
ATOM     19  C14 UNK d          24.124  30.927  28.307  0.00  0.00     0.106 A 
ATOM     20  C32 UNK d          23.505  30.455  27.378  0.00  0.00     0.000 A 
ATOM     21  C34 UNK d          23.745  30.091  27.796  0.00  0.00     0.002 A 
ATOM     22  C29 UNK d          24.056  30.323  28.265  0.00  0.00     0.025 A 
ATOM     23  O9  UNK d          24.437  31.162  28.777  0.00  0.00    -0.273 OA
ATOM     24  C7  UNK d          24.505  31.766  28.819  0.00  0.00     0.303 A 
ATOM     25  O17 UNK d          24.773  31.710  29.249  0.00  0.00    -0.259 OA
ENDBRANCH   1  14
BRANCH   1  26
ATOM     26  C12 UNK d          24.819  32.999  28.183  0.00  0.00     0.003 A 
ATOM     27  C15 UNK d          25.356  32.992  28.460  0.00  0.00     0.026 A 
ATOM     28  C16 UNK d          25.830  33.263  28.192  0.00  0.00     0.119 A 
ATOM     29  O20 UNK d          26.417  33.323  28.368  0.00  0.00    -0.300 OA
ATOM     30  C19 UNK d          25.767  33.537  27.654  0.00  0.00     0.119 A 
ATOM     31  C22 UNK d          26.710  33.635  27.936  0.00  0.00     0.304 A 
ATOM     32  O21 UNK d          26.311  33.769  27.492  0.00  0.00    -0.300 OA
ATOM     33  C26 UNK d          25.224  33.544  27.376  0.00  0.00     0.026 A 
ATOM     34  C23 UNK d          24.748  33.274  27.641  0.00  0.00     0.002 A 
ENDBRANCH   1  26
TORSDOF 3
ENDMDL
MODEL 5
REMARK VINA RESULT:      -4.1      0.603      3.080
REMARK  3 active torsions:
REMARK  status: ('A' for Active; 'I' for Inactive)
REMARK    1  A    between atoms: C1_1  and  C5_5 
REMARK    2  A    between atoms: C2_2  and  C5_5 
REMARK    3  A    between atoms: C5_5  and  C12_12 
ROOT
ATOM      1  C5  UNK d          24.434  32.802  28.610  0.00  0.00     0.017 C 
ENDROOT
BRANCH   1   2
ATOM      2  C1  UNK d          24.374  32.207  28.513  0.00  0.00     0.103 A 
ATOM      3  C3  UNK d          24.022  32.003  28.054  0.00  0.00     0.203 A 
ATOM      4  C10 UNK d          23.964  31.413  27.961  0.00  0.00     0.062 A 
ATOM      5  O25 UNK d          23.738  32.395  27.700  0.00  0.00    -0.286 OA
ATOM      6  C28 UNK d          23.616  31.215  27.505  0.00  0.00     0.005 A 
ATOM      7  C13 UNK d          24.252  31.015  28.319  0.00  0.00     0.106 A 
ATOM      8  C31 UNK d          23.555  30.619  27.408  0.00  0.00     0.000 A 
ATOM      9  C33 UNK d          23.839  30.226  27.762  0.00  0.00     0.002 A 
ATOM     10  C30 UNK d          24.190  30.422  28.220  0.00  0.00     0.025 A 
ATOM     11  O8  UNK d          24.596  31.209  28.768  0.00  0.00    -0.273 OA
ATOM     12  C6  UNK d          24.661  31.809  28.872  0.00  0.00     0.303 A 
ATOM     13  O18 UNK d          24.952  31.940  29.251  0.00  0.00    -0.259 OA
ENDBRANCH   1   2
BRANCH   1  14
ATOM     14  C2  UNK d          24.848  33.120  28.304  0.00  0.00     0.103 A 
ATOM     15  C4  UNK d          25.410  33.192  28.526  0.00  0.00     0.203 A 
ATOM     16  C11 UNK d          25.824  33.510  28.220  0.00  0.00     0.062 A 
ATOM     17  O24 UNK d          25.553  32.940  29.066  0.00  0.00    -0.286 OA
ATOM     18  C27 UNK d          26.382  33.581  28.442  0.00  0.00     0.005 A 
ATOM     19  C14 UNK d          25.679  33.757  27.688  0.00  0.00     0.106 A 
ATOM     20  C32 UNK d          26.796  33.898  28.136  0.00  0.00     0.000 A 
ATOM     21  C34 UNK d          26.651  34.146  27.604  0.00  0.00     0.002 A 
ATOM     22  C29 UNK d          26.091  34.077  27.375  0.00  0.00     0.025 A 
ATOM     23  O9  UNK d          25.115  33.687  27.459  0.00  0.00    -0.273 OA
ATOM     24  C7  UNK d          24.703  33.367  27.772  0.00  0.00     0.303 A 
ATOM     25  O17 UNK d          24.356  33.450  27.408  0.00  0.00    -0.259 OA
ENDBRANCH   1  14
BRANCH   1  26
ATOM     26  C12 UNK d          24.076  33.085  29.019  0.00  0.00     0.003 A 
ATOM     27  C15 UNK d          23.593  33.397  28.830  0.00  0.00     0.026 A 
ATOM     28  C16 UNK d          23.242  33.674  29.242  0.00  0.00     0.119 A 
ATOM     29  O20 UNK d          22.733  34.016  29.178  0.00  0.00    -0.300 OA
ATOM     30  C19 UNK d          23.371  33.642  29.833  0.00  0.00     0.119 A 
ATOM     31  C22 UNK d          22.555  34.189  29.733  0.00  0.00     0.304 A 
ATOM     32  O21 UNK d          22.947  33.960  30.141  0.00  0.00    -0.300 OA
ATOM     33  C26 UNK d          23.859  33.327  30.023  0.00  0.00     0.026 A 
ATOM     34  C23 UNK d          24.212  33.048  29.614  0.00  0.00     0.002 A 
ENDBRANCH   1  26
TORSDOF 3
ENDMDL
MODEL 6
REMARK VINA RESULT:      -4.1      0.322      2.482
REMARK  3 active torsions:
REMARK  status: ('A' for Active; 'I' for Inactive)
REMARK    1  A    between atoms: C1_1  and  C5_5 
REMARK    2  A    between atoms: C2_2  and  C5_5 
REMARK    3  A    between atoms: C5_5  and  C12_12 
ROOT
ATOM      1  C5  UNK d          24.314  32.530  28.441  0.00  0.00     0.017 C 
ENDROOT
BRANCH   1   2
ATOM      2  C1  UNK d          23.924  32.886  28.738  0.00  0.00     0.103 A 
ATOM      3  C3  UNK d          23.867  32.840  29.348  0.00  0.00     0.203 A 
ATOM      4  C10 UNK d          23.480  33.195  29.638  0.00  0.00     0.062 A 
ATOM      5  O25 UNK d          24.198  32.441  29.648  0.00  0.00    -0.286 OA
ATOM      6  C28 UNK d          23.426  33.147  30.241  0.00  0.00     0.005 A 
ATOM      7  C13 UNK d          23.143  33.599  29.334  0.00  0.00     0.106 A 
ATOM      8  C31 UNK d          23.036  33.503  30.539  0.00  0.00     0.000 A 
ATOM      9  C33 UNK d          22.704  33.902  30.238  0.00  0.00     0.002 A 
ATOM     10  C30 UNK d          22.755  33.953  29.634  0.00  0.00     0.025 A 
ATOM     11  O8  UNK d          23.196  33.647  28.740  0.00  0.00    -0.273 OA
ATOM     12  C6  UNK d          23.587  33.291  28.434  0.00  0.00     0.303 A 
ATOM     13  O18 UNK d          23.610  33.353  27.943  0.00  0.00    -0.259 OA
ENDBRANCH   1   2
BRANCH   1  14
ATOM     14  C2  UNK d          24.896  32.687  28.395  0.00  0.00     0.103 A 
ATOM     15  C4  UNK d          25.091  33.026  27.929  0.00  0.00     0.203 A 
ATOM     16  C11 UNK d          25.673  33.184  27.884  0.00  0.00     0.062 A 
ATOM     17  O24 UNK d          24.689  33.207  27.504  0.00  0.00    -0.286 OA
ATOM     18  C27 UNK d          25.864  33.520  27.420  0.00  0.00     0.005 A 
ATOM     19  C14 UNK d          26.066  33.003  28.306  0.00  0.00     0.106 A 
ATOM     20  C32 UNK d          26.446  33.678  27.375  0.00  0.00     0.000 A 
ATOM     21  C34 UNK d          26.839  33.497  27.797  0.00  0.00     0.002 A 
ATOM     22  C29 UNK d          26.653  33.158  28.266  0.00  0.00     0.025 A 
ATOM     23  O9  UNK d          25.876  32.662  28.777  0.00  0.00    -0.273 OA
ATOM     24  C7  UNK d          25.289  32.506  28.817  0.00  0.00     0.303 A 
ATOM     25  O17 UNK d          25.381  32.252  29.250  0.00  0.00    -0.259 OA
ENDBRANCH   1  14
BRANCH   1  26
ATOM     26  C12 UNK d          24.119  32.008  28.184  0.00  0.00     0.003 A 
ATOM     27  C15 UNK d          24.191  31.484  28.478  0.00  0.00     0.026 A 
ATOM     28  C16 UNK d          23.995  30.971  28.218  0.00  0.00     0.119 A 
ATOM     29  O20 UNK d          24.010  30.385  28.411  0.00  0.00    -0.300 OA
ATOM     30  C19 UNK d          23.732  30.981  27.671  0.00  0.00     0.119 A 
ATOM     31  C22 UNK d          23.755  30.042  27.979  0.00  0.00     0.304 A 
ATOM     32  O21 UNK d          23.581  30.406  27.520  0.00  0.00    -0.300 OA
ATOM     33  C26 UNK d          23.660  31.510  27.376  0.00  0.00     0.026 A 
ATOM     34  C23 UNK d          23.854  32.025  27.633  0.00  0.00     0.002 A 
ENDBRANCH   1  26
TORSDOF 3
ENDMDL
MODEL 7
REMARK VINA RESULT:      -4.0      0.326      2.736
REMARK  3 active torsions:
REMARK  status: ('A' for Active; 'I' for Inactive)
REMARK    1  A    between atoms: C1_1  and  C5_5 
REMARK    2  A    between atoms: C2_2  and  C5_5 
REMARK    3  A    between atoms: C5_5  and  C12_12 
ROOT
ATOM      1  C5  UNK d          24.455  32.722  28.595  0.00  0.00     0.017 C 
ENDROOT
BRANCH   1   2
ATOM      2  C1  UNK d          24.136  32.982  29.041  0.00  0.00     0.103 A 
ATOM      3  C3  UNK d          23.634  33.310  28.910  0.00  0.00     0.203 A 
ATOM      4  C10 UNK d          23.321  33.566  29.354  0.00  0.00     0.062 A 
ATOM      5  O25 UNK d          23.459  33.372  28.340  0.00  0.00    -0.286 OA
ATOM      6  C28 UNK d          22.825  33.889  29.221  0.00  0.00     0.005 A 
ATOM      7  C13 UNK d          23.498  33.503  29.932  0.00  0.00     0.106 A 
ATOM      8  C31 UNK d          22.506  34.150  29.666  0.00  0.00     0.000 A 
ATOM      9  C33 UNK d          22.681  34.088  30.237  0.00  0.00     0.002 A 
ATOM     10  C30 UNK d          23.178  33.764  30.373  0.00  0.00     0.025 A 
ATOM     11  O8  UNK d          23.986  33.185  30.063  0.00  0.00    -0.273 OA
ATOM     12  C6  UNK d          24.313  32.919  29.619  0.00  0.00     0.303 A 
ATOM     13  O18 UNK d          24.713  32.662  29.758  0.00  0.00    -0.259 OA
ENDBRANCH   1   2
BRANCH   1  14
ATOM     14  C2  UNK d          24.870  33.040  28.293  0.00  0.00     0.103 A 
ATOM     15  C4  UNK d          25.447  33.060  28.485  0.00  0.00     0.203 A 
ATOM     16  C11 UNK d          25.863  33.378  28.183  0.00  0.00     0.062 A 
ATOM     17  O24 UNK d          25.604  32.752  28.992  0.00  0.00    -0.286 OA
ATOM     18  C27 UNK d          26.435  33.397  28.376  0.00  0.00     0.005 A 
ATOM     19  C14 UNK d          25.704  33.680  27.684  0.00  0.00     0.106 A 
ATOM     20  C32 UNK d          26.851  33.715  28.073  0.00  0.00     0.000 A 
ATOM     21  C34 UNK d          26.693  34.017  27.575  0.00  0.00     0.002 A 
ATOM     22  C29 UNK d          26.118  34.002  27.375  0.00  0.00     0.025 A 
ATOM     23  O9  UNK d          25.126  33.664  27.485  0.00  0.00    -0.273 OA
ATOM     24  C7  UNK d          24.712  33.342  27.794  0.00  0.00     0.303 A 
ATOM     25  O17 UNK d          24.351  33.477  27.460  0.00  0.00    -0.259 OA
ENDBRANCH   1  14
BRANCH   1  26
ATOM     26  C12 UNK d          24.357  32.134  28.450  0.00  0.00     0.003 A 
ATOM     27  C15 UNK d          24.016  31.997  27.970  0.00  0.00     0.026 A 
ATOM     28  C16 UNK d          23.923  31.412  27.832  0.00  0.00     0.119 A 
ATOM     29  O20 UNK d          23.602  31.147  27.377  0.00  0.00    -0.300 OA
ATOM     30  C19 UNK d          24.167  30.971  28.169  0.00  0.00     0.119 A 
ATOM     31  C22 UNK d          23.652  30.545  27.441  0.00  0.00     0.304 A 
ATOM     32  O21 UNK d          24.001  30.431  27.930  0.00  0.00    -0.300 OA
ATOM     33  C26 UNK d          24.511  31.111  28.654  0.00  0.00     0.026 A 
ATOM     34  C23 UNK d          24.606  31.695  28.795  0.00  0.00     0.002 A 
ENDBRANCH   1  26
TORSDOF 3
ENDMDL
MODEL 8
REMARK VINA RESULT:      -3.8      1.737      3.472
REMARK  3 active torsions:
REMARK  status: ('A' for Active; 'I' for Inactive)
REMARK    1  A    between atoms: C1_1  and  C5_5 
REMARK    2  A    between atoms: C2_2  and  C5_5 
REMARK    3  A    between atoms: C5_5  and  C12_12 
ROOT
ATOM      1  C5  UNK d          25.913  34.231  28.589  0.00  0.00     0.017 C 
ENDROOT
BRANCH   1   2
ATOM      2  C1  UNK d          25.388  33.941  28.499  0.00  0.00     0.103 A 
ATOM      3  C3  UNK d          25.325  33.552  28.029  0.00  0.00     0.203 A 
ATOM      4  C10 UNK d          24.804  33.268  27.944  0.00  0.00     0.062 A 
ATOM      5  O25 UNK d          25.787  33.460  27.656  0.00  0.00    -0.286 OA
ATOM      6  C28 UNK d          24.746  32.884  27.477  0.00  0.00     0.005 A 
ATOM      7  C13 UNK d          24.337  33.361  28.321  0.00  0.00     0.106 A 
ATOM      8  C31 UNK d          24.221  32.594  27.388  0.00  0.00     0.000 A 
ATOM      9  C33 UNK d          23.760  32.687  27.760  0.00  0.00     0.002 A 
ATOM     10  C30 UNK d          23.814  33.071  28.229  0.00  0.00     0.025 A 
ATOM     11  O8  UNK d          24.393  33.739  28.781  0.00  0.00    -0.273 OA
ATOM     12  C6  UNK d          24.920  34.035  28.877  0.00  0.00     0.303 A 
ATOM     13  O18 UNK d          24.938  34.341  29.265  0.00  0.00    -0.259 OA
ENDBRANCH   1   2
BRANCH   1  14
ATOM     14  C2  UNK d          26.029  34.748  28.297  0.00  0.00     0.103 A 
ATOM     15  C4  UNK d          25.877  35.283  28.542  0.00  0.00     0.203 A 
ATOM     16  C11 UNK d          25.993  35.800  28.250  0.00  0.00     0.062 A 
ATOM     17  O24 UNK d          25.605  35.294  29.091  0.00  0.00    -0.286 OA
ATOM     18  C27 UNK d          25.842  36.332  28.495  0.00  0.00     0.005 A 
ATOM     19  C14 UNK d          26.261  35.785  27.709  0.00  0.00     0.106 A 
ATOM     20  C32 UNK d          25.957  36.848  28.203  0.00  0.00     0.000 A 
ATOM     21  C34 UNK d          26.226  36.834  27.662  0.00  0.00     0.002 A 
ATOM     22  C29 UNK d          26.380  36.302  27.410  0.00  0.00     0.025 A 
ATOM     23  O9  UNK d          26.416  35.249  27.457  0.00  0.00    -0.273 OA
ATOM     24  C7  UNK d          26.297  34.733  27.756  0.00  0.00     0.303 A 
ATOM     25  O17 UNK d          26.500  34.460  27.375  0.00  0.00    -0.259 OA
ENDBRANCH   1  14
BRANCH   1  26
ATOM     26  C12 UNK d          26.329  34.001  28.975  0.00  0.00     0.003 A 
ATOM     27  C15 UNK d          26.797  33.684  28.759  0.00  0.00     0.026 A 
ATOM     28  C16 UNK d          27.205  33.459  29.149  0.00  0.00     0.119 A 
ATOM     29  O20 UNK d          27.716  33.126  29.056  0.00  0.00    -0.300 OA
ATOM     30  C19 UNK d          27.148  33.548  29.746  0.00  0.00     0.119 A 
ATOM     31  C22 UNK d          27.966  33.015  29.599  0.00  0.00     0.304 A 
ATOM     32  O21 UNK d          27.618  33.275  30.029  0.00  0.00    -0.300 OA
ATOM     33  C26 UNK d          26.675  33.868  29.963  0.00  0.00     0.026 A 
ATOM     34  C23 UNK d          26.265  34.095  29.576  0.00  0.00     0.002 A 
ENDBRANCH   1  26
TORSDOF 3
ENDMDL
MODEL 9
REMARK VINA RESULT:      -3.8      1.742      3.139
REMARK  3 active torsions:
REMARK  status: ('A' for Active; 'I' for Inactive)
REMARK    1  A    between atoms: C1_1  and  C5_5 
REMARK    2  A    between atoms: C2_2  and  C5_5 
REMARK    3  A    between atoms: C5_5  and  C12_12 
ROOT
ATOM      1  C5  UNK d          25.930  34.251  28.581  0.00  0.00     0.017 C 
ENDROOT
BRANCH   1   2
ATOM      2  C1  UNK d          25.923  34.850  28.488  0.00  0.00     0.103 A 
ATOM      3  C3  UNK d          26.235  35.094  28.020  0.00  0.00     0.203 A 
ATOM      4  C10 UNK d          26.225  35.687  27.932  0.00  0.00     0.062 A 
ATOM      5  O25 UNK d          26.549  34.737  27.654  0.00  0.00    -0.286 OA
ATOM      6  C28 UNK d          26.536  35.925  27.468  0.00  0.00     0.005 A 
ATOM      7  C13 UNK d          25.907  36.049  28.303  0.00  0.00     0.106 A 
ATOM      8  C31 UNK d          26.528  36.525  27.375  0.00  0.00     0.000 A 
ATOM      9  C33 UNK d          26.214  36.882  27.741  0.00  0.00     0.002 A 
ATOM     10  C30 UNK d          25.902  36.646  28.207  0.00  0.00     0.025 A 
ATOM     11  O8  UNK d          25.601  35.815  28.760  0.00  0.00    -0.273 OA
ATOM     12  C6  UNK d          25.605  35.212  28.859  0.00  0.00     0.303 A 
ATOM     13  O18 UNK d          25.342  35.047  29.246  0.00  0.00    -0.259 OA
ENDBRANCH   1   2
BRANCH   1  14
ATOM     14  C2  UNK d          25.543  33.892  28.286  0.00  0.00     0.103 A 
ATOM     15  C4  UNK d          24.999  33.761  28.522  0.00  0.00     0.203 A 
ATOM     16  C11 UNK d          24.612  33.403  28.226  0.00  0.00     0.062 A 
ATOM     17  O24 UNK d          24.845  33.997  29.067  0.00  0.00    -0.286 OA
ATOM     18  C27 UNK d          24.071  33.273  28.463  0.00  0.00     0.005 A 
ATOM     19  C14 UNK d          24.767  33.172  27.690  0.00  0.00     0.106 A 
ATOM     20  C32 UNK d          23.684  32.915  28.167  0.00  0.00     0.000 A 
ATOM     21  C34 UNK d          23.839  32.684  27.631  0.00  0.00     0.002 A 
ATOM     22  C29 UNK d          24.382  32.811  27.387  0.00  0.00     0.025 A 
ATOM     23  O9  UNK d          25.314  33.300  27.446  0.00  0.00    -0.273 OA
ATOM     24  C7  UNK d          25.699  33.662  27.749  0.00  0.00     0.303 A 
ATOM     25  O17 UNK d          26.043  33.617  27.375  0.00  0.00    -0.259 OA
ENDBRANCH   1  14
BRANCH   1  26
ATOM     26  C12 UNK d          26.331  34.006  28.976  0.00  0.00     0.003 A 
ATOM     27  C15 UNK d          26.837  33.749  28.769  0.00  0.00     0.026 A 
ATOM     28  C16 UNK d          27.229  33.508  29.166  0.00  0.00     0.119 A 
ATOM     29  O20 UNK d          27.770  33.224  29.082  0.00  0.00    -0.300 OA
ATOM     30  C19 UNK d          27.118  33.525  29.762  0.00  0.00     0.119 A 
ATOM     31  C22 UNK d          27.984  33.068  29.630  0.00  0.00     0.304 A 
ATOM     32  O21 UNK d          27.583  33.252  30.053  0.00  0.00    -0.300 OA
ATOM     33  C26 UNK d          26.606  33.784  29.970  0.00  0.00     0.026 A 
ATOM     34  C23 UNK d          26.211  34.026  29.575  0.00  0.00     0.002 A 
ENDBRANCH   1  26
TORSDOF 3
ENDMDL
