MODEL 1
REMARK VINA RESULT:      -1.3      0.000      0.000
REMARK  7 active torsions:
REMARK  status: ('A' for Active; 'I' for Inactive)
REMARK    1  A    between atoms: C4_4  and  S5_5 
REMARK    2  A    between atoms: S5_5  and  C6_6 
REMARK    3  A    between atoms: C10_10  and  C11_11 
REMARK    4  A    between atoms: C10_10  and  C23_23 
REMARK    5  A    between atoms: C11_11  and  C12_12 
REMARK    6  A    between atoms: C12_12  and  C13_13 
REMARK    7  A    between atoms: C28_28  and  C32_32 
ROOT
ATOM      1  C6  UNK d          29.893  34.637  30.133  0.00  0.00     0.099 A 
ATOM      2  C7  UNK d          28.962  34.159  31.207  0.00  0.00     0.236 A 
ATOM      3  O8  UNK d          29.513  33.645  32.504  0.00  0.00    -0.163 OA
ATOM      4  O9  UNK d          27.479  34.195  30.985  0.00  0.00    -0.313 OA
ATOM      5  C10 UNK d          26.927  34.709  29.688  0.00  0.00     0.107 A 
ATOM      6  C20 UNK d          27.859  35.187  28.614  0.00  0.00     0.083 A 
ATOM      7  C21 UNK d          29.342  35.151  28.837  0.00  0.00     0.121 A 
ATOM      8  O22 UNK d          30.274  35.629  27.763  0.00  0.00    -0.194 OA
ENDROOT
BRANCH   5   9
ATOM      9  C11 UNK d          25.933  35.105  28.637  0.00  0.00     0.028 C 
BRANCH   9  10
ATOM     10  C12 UNK d          25.815  34.302  27.375  0.00  0.00     0.002 C 
BRANCH  10  11
ATOM     11  C13 UNK d          25.466  32.845  27.442  0.00  0.00     0.000 A 
ATOM     12  C14 UNK d          26.550  31.811  27.375  0.00  0.00     0.003 A 
ATOM     13  C15 UNK d          26.201  30.353  27.442  0.00  0.00     0.033 A 
ATOM     14  C16 UNK d          24.769  29.930  27.577  0.00  0.00     0.152 A 
ATOM     15  O17 UNK d          24.420  28.473  27.644  0.00  0.00    -0.224 OA
ATOM     16  C18 UNK d          23.684  30.965  27.644  0.00  0.00     0.033 A 
ATOM     17  C19 UNK d          24.033  32.422  27.577  0.00  0.00     0.003 A 
ENDBRANCH  10  11
ENDBRANCH   9  10
ENDBRANCH   5   9
BRANCH   5  18
ATOM     18  C23 UNK d          25.650  34.368  30.397  0.00  0.00     0.026 A 
ATOM     19  C24 UNK d          25.334  33.064  31.065  0.00  0.00     0.002 A 
ATOM     20  C25 UNK d          23.953  33.162  31.643  0.00  0.00     0.000 A 
ATOM     21  C26 UNK d          23.417  34.528  31.332  0.00  0.00     0.000 A 
ATOM     22  C27 UNK d          24.466  35.274  30.562  0.00  0.00     0.002 A 
ENDBRANCH   5  18
BRANCH   1  23
ATOM     23  S5  UNK d          31.376  34.600  30.356  0.00  0.00    -0.086 SA
BRANCH  23  24
ATOM     24  C4  UNK d          32.192  33.475  29.793  0.00  0.00     0.004 A 
ATOM     25  C3  UNK d          31.555  32.141  29.537  0.00  0.00     0.055 A 
ATOM     26  C2  UNK d          32.371  31.016  28.974  0.00  0.00    -0.030 A 
ATOM     27  C1  UNK d          31.733  29.682  28.719  0.00  0.00     0.028 C 
ATOM     28  C30 UNK d          33.824  31.224  28.666  0.00  0.00     0.044 A 
ATOM     29  C29 UNK d          34.461  32.557  28.921  0.00  0.00     0.062 A 
ATOM     30  N31 UNK d          34.640  30.098  28.102  0.00  0.00    -0.105 NA
ATOM     31  C28 UNK d          33.645  33.683  29.485  0.00  0.00    -0.037 A 
BRANCH  31  32
ATOM     32  C32 UNK d          34.283  35.017  29.740  0.00  0.00     0.016 C 
ATOM     33  C33 UNK d          33.940  35.447  28.345  0.00  0.00     0.004 C 
ATOM     34  C34 UNK d          34.625  34.586  31.135  0.00  0.00     0.004 C 
ATOM     35  C35 UNK d          34.920  36.350  29.995  0.00  0.00     0.004 C 
ENDBRANCH  31  32
ENDBRANCH  23  24
ENDBRANCH   1  23
TORSDOF 7
ENDMDL
MODEL 2
REMARK VINA RESULT:      -1.3      3.282      6.566
REMARK  7 active torsions:
REMARK  status: ('A' for Active; 'I' for Inactive)
REMARK    1  A    between atoms: C4_4  and  S5_5 
REMARK    2  A    between atoms: S5_5  and  C6_6 
REMARK    3  A    between atoms: C10_10  and  C11_11 
REMARK    4  A    between atoms: C10_10  and  C23_23 
REMARK    5  A    between atoms: C11_11  and  C12_12 
REMARK    6  A    between atoms: C12_12  and  C13_13 
REMARK    7  A    between atoms: C28_28  and  C32_32 
ROOT
ATOM      1  C6  UNK d          25.927  29.542  29.927  0.00  0.00     0.099 A 
ATOM      2  C7  UNK d          25.770  30.454  31.107  0.00  0.00     0.236 A 
ATOM      3  O8  UNK d          26.183  29.991  32.473  0.00  0.00    -0.163 OA
ATOM      4  O9  UNK d          25.201  31.830  30.922  0.00  0.00    -0.313 OA
ATOM      5  C10 UNK d          24.789  32.293  29.557  0.00  0.00     0.107 A 
ATOM      6  C20 UNK d          24.945  31.381  28.376  0.00  0.00     0.083 A 
ATOM      7  C21 UNK d          25.514  30.006  28.561  0.00  0.00     0.121 A 
ATOM      8  O22 UNK d          25.670  29.094  27.380  0.00  0.00    -0.194 OA
ENDROOT
BRANCH   5   9
ATOM      9  C11 UNK d          24.258  33.181  28.470  0.00  0.00     0.028 C 
BRANCH   9  10
ATOM     10  C12 UNK d          25.168  33.653  27.375  0.00  0.00     0.002 C 
BRANCH  10  11
ATOM     11  C13 UNK d          26.291  34.597  27.688  0.00  0.00     0.000 A 
ATOM     12  C14 UNK d          25.992  35.994  28.142  0.00  0.00     0.003 A 
ATOM     13  C15 UNK d          27.116  36.937  28.455  0.00  0.00     0.033 A 
ATOM     14  C16 UNK d          28.538  36.484  28.314  0.00  0.00     0.152 A 
ATOM     15  O17 UNK d          29.661  37.427  28.627  0.00  0.00    -0.224 OA
ATOM     16  C18 UNK d          28.838  35.086  27.859  0.00  0.00     0.033 A 
ATOM     17  C19 UNK d          27.715  34.142  27.546  0.00  0.00     0.003 A 
ENDBRANCH  10  11
ENDBRANCH   9  10
ENDBRANCH   5   9
BRANCH   5  18
ATOM     18  C23 UNK d          24.448  33.513  30.360  0.00  0.00     0.026 A 
ATOM     19  C24 UNK d          23.144  34.253  30.329  0.00  0.00     0.002 A 
ATOM     20  C25 UNK d          23.242  35.405  31.285  0.00  0.00     0.000 A 
ATOM     21  C26 UNK d          24.606  35.377  31.907  0.00  0.00     0.000 A 
ATOM     22  C27 UNK d          25.352  34.207  31.335  0.00  0.00     0.002 A 
ENDBRANCH   5  18
BRANCH   1  23
ATOM     23  S5  UNK d          26.495  28.167  30.111  0.00  0.00    -0.086 SA
BRANCH  23  24
ATOM     24  C4  UNK d          27.963  27.929  29.910  0.00  0.00     0.004 A 
ATOM     25  C3  UNK d          28.896  29.092  29.747  0.00  0.00     0.055 A 
ATOM     26  C2  UNK d          30.363  28.853  29.546  0.00  0.00    -0.030 A 
ATOM     27  C1  UNK d          31.296  30.016  29.383  0.00  0.00     0.028 C 
ATOM     28  C30 UNK d          30.897  27.452  29.507  0.00  0.00     0.044 A 
ATOM     29  C29 UNK d          29.964  26.289  29.669  0.00  0.00     0.062 A 
ATOM     30  N31 UNK d          32.364  27.214  29.305  0.00  0.00    -0.105 NA
ATOM     31  C28 UNK d          28.497  26.527  29.871  0.00  0.00    -0.037 A 
BRANCH  31  32
ATOM     32  C32 UNK d          27.563  25.364  30.034  0.00  0.00     0.016 C 
ATOM     33  C33 UNK d          27.319  25.353  28.554  0.00  0.00     0.004 C 
ATOM     34  C34 UNK d          27.808  25.375  31.513  0.00  0.00     0.004 C 
ATOM     35  C35 UNK d          26.630  24.201  30.196  0.00  0.00     0.004 C 
ENDBRANCH  31  32
ENDBRANCH  23  24
ENDBRANCH   1  23
TORSDOF 7
ENDMDL
MODEL 3
REMARK VINA RESULT:      -1.1      3.571      5.501
REMARK  7 active torsions:
REMARK  status: ('A' for Active; 'I' for Inactive)
REMARK    1  A    between atoms: C4_4  and  S5_5 
REMARK    2  A    between atoms: S5_5  and  C6_6 
REMARK    3  A    between atoms: C10_10  and  C11_11 
REMARK    4  A    between atoms: C10_10  and  C23_23 
REMARK    5  A    between atoms: C11_11  and  C12_12 
REMARK    6  A    between atoms: C12_12  and  C13_13 
REMARK    7  A    between atoms: C28_28  and  C32_32 
ROOT
ATOM      1  C6  UNK d          29.344  28.996  29.841  0.00  0.00     0.099 A 
ATOM      2  C7  UNK d          28.048  28.498  30.409  0.00  0.00     0.236 A 
ATOM      3  O8  UNK d          28.049  27.625  31.628  0.00  0.00    -0.163 OA
ATOM      4  O9  UNK d          26.750  28.875  29.757  0.00  0.00    -0.313 OA
ATOM      5  C10 UNK d          26.749  29.748  28.538  0.00  0.00     0.107 A 
ATOM      6  C20 UNK d          28.045  30.246  27.970  0.00  0.00     0.083 A 
ATOM      7  C21 UNK d          29.343  29.869  28.622  0.00  0.00     0.121 A 
ATOM      8  O22 UNK d          30.639  30.367  28.054  0.00  0.00    -0.194 OA
ENDROOT
BRANCH   5   9
ATOM      9  C11 UNK d          26.236  30.545  27.375  0.00  0.00     0.028 C 
BRANCH   9  10
ATOM     10  C12 UNK d          26.346  32.042  27.384  0.00  0.00     0.002 C 
BRANCH  10  11
ATOM     11  C13 UNK d          25.488  32.851  28.311  0.00  0.00     0.000 A 
ATOM     12  C14 UNK d          26.113  33.594  29.454  0.00  0.00     0.003 A 
ATOM     13  C15 UNK d          25.254  34.403  30.381  0.00  0.00     0.033 A 
ATOM     14  C16 UNK d          23.772  34.470  30.165  0.00  0.00     0.152 A 
ATOM     15  O17 UNK d          22.914  35.279  31.091  0.00  0.00    -0.224 OA
ATOM     16  C18 UNK d          23.147  33.727  29.021  0.00  0.00     0.033 A 
ATOM     17  C19 UNK d          24.004  32.917  28.094  0.00  0.00     0.003 A 
ENDBRANCH  10  11
ENDBRANCH   9  10
ENDBRANCH   5   9
BRANCH   5  18
ATOM     18  C23 UNK d          25.275  29.528  28.701  0.00  0.00     0.026 A 
ATOM     19  C24 UNK d          24.331  29.053  27.637  0.00  0.00     0.002 A 
ATOM     20  C25 UNK d          22.958  28.975  28.236  0.00  0.00     0.000 A 
ATOM     21  C26 UNK d          23.053  29.402  29.671  0.00  0.00     0.000 A 
ATOM     22  C27 UNK d          24.486  29.744  29.958  0.00  0.00     0.002 A 
ENDBRANCH   5  18
BRANCH   1  23
ATOM     23  S5  UNK d          30.642  28.619  30.493  0.00  0.00    -0.086 SA
BRANCH  23  24
ATOM     24  C4  UNK d          31.476  27.513  29.919  0.00  0.00     0.004 A 
ATOM     25  C3  UNK d          30.822  26.398  29.158  0.00  0.00     0.055 A 
ATOM     26  C2  UNK d          31.656  25.291  28.585  0.00  0.00    -0.030 A 
ATOM     27  C1  UNK d          31.002  24.176  27.824  0.00  0.00     0.028 C 
ATOM     28  C30 UNK d          33.144  25.299  28.772  0.00  0.00     0.044 A 
ATOM     29  C29 UNK d          33.798  26.414  29.533  0.00  0.00     0.062 A 
ATOM     30  N31 UNK d          33.979  24.193  28.198  0.00  0.00    -0.105 NA
ATOM     31  C28 UNK d          32.964  27.521  30.106  0.00  0.00    -0.037 A 
BRANCH  31  32
ATOM     32  C32 UNK d          33.618  28.636  30.867  0.00  0.00     0.016 C 
ATOM     33  C33 UNK d          33.478  27.851  32.138  0.00  0.00     0.004 C 
ATOM     34  C34 UNK d          33.758  29.421  29.597  0.00  0.00     0.004 C 
ATOM     35  C35 UNK d          34.272  29.751  31.628  0.00  0.00     0.004 C 
ENDBRANCH  31  32
ENDBRANCH  23  24
ENDBRANCH   1  23
TORSDOF 7
ENDMDL
MODEL 4
REMARK VINA RESULT:      -1.1      3.951      7.169
REMARK  7 active torsions:
REMARK  status: ('A' for Active; 'I' for Inactive)
REMARK    1  A    between atoms: C4_4  and  S5_5 
REMARK    2  A    between atoms: S5_5  and  C6_6 
REMARK    3  A    between atoms: C10_10  and  C11_11 
REMARK    4  A    between atoms: C10_10  and  C23_23 
REMARK    5  A    between atoms: C11_11  and  C12_12 
REMARK    6  A    between atoms: C12_12  and  C13_13 
REMARK    7  A    between atoms: C28_28  and  C32_32 
ROOT
ATOM      1  C6  UNK d          26.248  27.831  30.162  0.00  0.00     0.099 A 
ATOM      2  C7  UNK d          26.257  28.871  31.243  0.00  0.00     0.236 A 
ATOM      3  O8  UNK d          26.944  28.591  32.547  0.00  0.00    -0.163 OA
ATOM      4  O9  UNK d          25.579  30.190  31.021  0.00  0.00    -0.313 OA
ATOM      5  C10 UNK d          24.893  30.470  29.717  0.00  0.00     0.107 A 
ATOM      6  C20 UNK d          24.884  29.430  28.636  0.00  0.00     0.083 A 
ATOM      7  C21 UNK d          25.562  28.110  28.859  0.00  0.00     0.121 A 
ATOM      8  O22 UNK d          25.553  27.071  27.778  0.00  0.00    -0.194 OA
ENDROOT
BRANCH   5   9
ATOM      9  C11 UNK d          24.115  31.198  28.661  0.00  0.00     0.028 C 
BRANCH   9  10
ATOM     10  C12 UNK d          24.788  31.612  27.385  0.00  0.00     0.002 C 
BRANCH  10  11
ATOM     11  C13 UNK d          25.818  32.701  27.400  0.00  0.00     0.000 A 
ATOM     12  C14 UNK d          25.390  34.138  27.437  0.00  0.00     0.003 A 
ATOM     13  C15 UNK d          26.422  35.227  27.451  0.00  0.00     0.033 A 
ATOM     14  C16 UNK d          27.881  34.880  27.428  0.00  0.00     0.152 A 
ATOM     15  O17 UNK d          28.911  35.970  27.443  0.00  0.00    -0.224 OA
ATOM     16  C18 UNK d          28.309  33.443  27.391  0.00  0.00     0.033 A 
ATOM     17  C19 UNK d          27.278  32.353  27.377  0.00  0.00     0.003 A 
ENDBRANCH  10  11
ENDBRANCH   9  10
ENDBRANCH   5   9
BRANCH   5  18
ATOM     18  C23 UNK d          24.631  31.762  30.431  0.00  0.00     0.026 A 
ATOM     19  C24 UNK d          23.288  32.392  30.650  0.00  0.00     0.002 A 
ATOM     20  C25 UNK d          23.494  33.671  31.406  0.00  0.00     0.000 A 
ATOM     21  C26 UNK d          24.965  33.832  31.654  0.00  0.00     0.000 A 
ATOM     22  C27 UNK d          25.668  32.651  31.051  0.00  0.00     0.002 A 
ENDBRANCH   5  18
BRANCH   1  23
ATOM     23  S5  UNK d          26.926  26.511  30.385  0.00  0.00    -0.086 SA
BRANCH  23  24
ATOM     24  C4  UNK d          28.364  26.332  29.997  0.00  0.00     0.004 A 
ATOM     25  C3  UNK d          29.293  27.509  29.997  0.00  0.00     0.055 A 
ATOM     26  C2  UNK d          30.731  27.330  29.609  0.00  0.00    -0.030 A 
ATOM     27  C1  UNK d          31.660  28.507  29.609  0.00  0.00     0.028 C 
ATOM     28  C30 UNK d          31.240  25.973  29.221  0.00  0.00     0.044 A 
ATOM     29  C29 UNK d          30.310  24.796  29.222  0.00  0.00     0.062 A 
ATOM     30  N31 UNK d          32.677  25.793  28.833  0.00  0.00    -0.105 NA
ATOM     31  C28 UNK d          28.872  24.975  29.610  0.00  0.00    -0.037 A 
BRANCH  31  32
ATOM     32  C32 UNK d          27.943  23.798  29.610  0.00  0.00     0.016 C 
ATOM     33  C33 UNK d          28.280  23.532  31.047  0.00  0.00     0.004 C 
ATOM     34  C34 UNK d          27.607  24.063  28.172  0.00  0.00     0.004 C 
ATOM     35  C35 UNK d          27.014  22.620  29.610  0.00  0.00     0.004 C 
ENDBRANCH  31  32
ENDBRANCH  23  24
ENDBRANCH   1  23
TORSDOF 7
ENDMDL
MODEL 5
REMARK VINA RESULT:      -1.1      2.032      2.305
REMARK  7 active torsions:
REMARK  status: ('A' for Active; 'I' for Inactive)
REMARK    1  A    between atoms: C4_4  and  S5_5 
REMARK    2  A    between atoms: S5_5  and  C6_6 
REMARK    3  A    between atoms: C10_10  and  C11_11 
REMARK    4  A    between atoms: C10_10  and  C23_23 
REMARK    5  A    between atoms: C11_11  and  C12_12 
REMARK    6  A    between atoms: C12_12  and  C13_13 
REMARK    7  A    between atoms: C28_28  and  C32_32 
ROOT
ATOM      1  C6  UNK d          31.429  34.642  29.746  0.00  0.00     0.099 A 
ATOM      2  C7  UNK d          30.441  35.207  30.722  0.00  0.00     0.236 A 
ATOM      3  O8  UNK d          30.891  35.615  32.094  0.00  0.00    -0.163 OA
ATOM      4  O9  UNK d          29.002  35.363  30.328  0.00  0.00    -0.313 OA
ATOM      5  C10 UNK d          28.552  34.955  28.957  0.00  0.00     0.107 A 
ATOM      6  C20 UNK d          29.540  34.390  27.980  0.00  0.00     0.083 A 
ATOM      7  C21 UNK d          30.979  34.234  28.375  0.00  0.00     0.121 A 
ATOM      8  O22 UNK d          31.967  33.669  27.398  0.00  0.00    -0.194 OA
ENDROOT
BRANCH   5   9
ATOM      9  C11 UNK d          27.649  34.713  27.783  0.00  0.00     0.028 C 
BRANCH   9  10
ATOM     10  C12 UNK d          27.308  33.310  27.375  0.00  0.00     0.002 C 
BRANCH  10  11
ATOM     11  C13 UNK d          26.175  32.589  28.043  0.00  0.00     0.000 A 
ATOM     12  C14 UNK d          26.439  31.333  28.817  0.00  0.00     0.003 A 
ATOM     13  C15 UNK d          25.305  30.612  29.486  0.00  0.00     0.033 A 
ATOM     14  C16 UNK d          23.909  31.147  29.379  0.00  0.00     0.152 A 
ATOM     15  O17 UNK d          22.776  30.426  30.048  0.00  0.00    -0.224 OA
ATOM     16  C18 UNK d          23.645  32.405  28.605  0.00  0.00     0.033 A 
ATOM     17  C19 UNK d          24.778  33.126  27.937  0.00  0.00     0.003 A 
ENDBRANCH  10  11
ENDBRANCH   9  10
ENDBRANCH   5   9
BRANCH   5  18
ATOM     18  C23 UNK d          27.250  35.436  29.526  0.00  0.00     0.026 A 
ATOM     19  C24 UNK d          26.602  34.941  30.784  0.00  0.00     0.002 A 
ATOM     20  C25 UNK d          25.319  35.695  30.972  0.00  0.00     0.000 A 
ATOM     21  C26 UNK d          25.175  36.656  29.830  0.00  0.00     0.000 A 
ATOM     22  C27 UNK d          26.368  36.496  28.936  0.00  0.00     0.002 A 
ENDBRANCH   5  18
BRANCH   1  23
ATOM     23  S5  UNK d          32.868  34.486  30.140  0.00  0.00    -0.086 SA
BRANCH  23  24
ATOM     24  C4  UNK d          33.386  33.145  30.570  0.00  0.00     0.004 A 
ATOM     25  C3  UNK d          32.454  32.139  31.176  0.00  0.00     0.055 A 
ATOM     26  C2  UNK d          32.972  30.799  31.605  0.00  0.00    -0.030 A 
ATOM     27  C1  UNK d          32.039  29.793  32.212  0.00  0.00     0.028 C 
ATOM     28  C30 UNK d          34.424  30.465  31.428  0.00  0.00     0.044 A 
ATOM     29  C29 UNK d          35.356  31.470  30.821  0.00  0.00     0.062 A 
ATOM     30  N31 UNK d          34.942  29.124  31.857  0.00  0.00    -0.105 NA
ATOM     31  C28 UNK d          34.838  32.811  30.392  0.00  0.00    -0.037 A 
BRANCH  31  32
ATOM     32  C32 UNK d          35.771  33.817  29.786  0.00  0.00     0.016 C 
ATOM     33  C33 UNK d          35.437  33.301  28.417  0.00  0.00     0.004 C 
ATOM     34  C34 UNK d          36.105  34.332  31.154  0.00  0.00     0.004 C 
ATOM     35  C35 UNK d          36.704  34.823  29.179  0.00  0.00     0.004 C 
ENDBRANCH  31  32
ENDBRANCH  23  24
ENDBRANCH   1  23
TORSDOF 7
ENDMDL
MODEL 6
REMARK VINA RESULT:      -1.1      3.893      6.332
REMARK  7 active torsions:
REMARK  status: ('A' for Active; 'I' for Inactive)
REMARK    1  A    between atoms: C4_4  and  S5_5 
REMARK    2  A    between atoms: S5_5  and  C6_6 
REMARK    3  A    between atoms: C10_10  and  C11_11 
REMARK    4  A    between atoms: C10_10  and  C23_23 
REMARK    5  A    between atoms: C11_11  and  C12_12 
REMARK    6  A    between atoms: C12_12  and  C13_13 
REMARK    7  A    between atoms: C28_28  and  C32_32 
ROOT
ATOM      1  C6  UNK d          28.938  27.187  30.001  0.00  0.00     0.099 A 
ATOM      2  C7  UNK d          27.724  27.261  30.880  0.00  0.00     0.236 A 
ATOM      3  O8  UNK d          27.770  26.700  32.270  0.00  0.00    -0.163 OA
ATOM      4  O9  UNK d          26.466  27.897  30.368  0.00  0.00    -0.313 OA
ATOM      5  C10 UNK d          26.420  28.458  28.978  0.00  0.00     0.107 A 
ATOM      6  C20 UNK d          27.634  28.384  28.099  0.00  0.00     0.083 A 
ATOM      7  C21 UNK d          28.892  27.748  28.611  0.00  0.00     0.121 A 
ATOM      8  O22 UNK d          30.106  27.674  27.732  0.00  0.00    -0.194 OA
ENDROOT
BRANCH   5   9
ATOM      9  C11 UNK d          25.890  29.126  27.744  0.00  0.00     0.028 C 
BRANCH   9  10
ATOM     10  C12 UNK d          26.357  30.503  27.376  0.00  0.00     0.002 C 
BRANCH  10  11
ATOM     11  C13 UNK d          25.722  31.705  28.011  0.00  0.00     0.000 A 
ATOM     12  C14 UNK d          26.531  32.594  28.908  0.00  0.00     0.003 A 
ATOM     13  C15 UNK d          25.895  33.796  29.543  0.00  0.00     0.033 A 
ATOM     14  C16 UNK d          24.452  34.108  29.281  0.00  0.00     0.152 A 
ATOM     15  O17 UNK d          23.818  35.310  29.916  0.00  0.00    -0.224 OA
ATOM     16  C18 UNK d          23.643  33.219  28.384  0.00  0.00     0.033 A 
ATOM     17  C19 UNK d          24.278  32.017  27.749  0.00  0.00     0.003 A 
ENDBRANCH  10  11
ENDBRANCH   9  10
ENDBRANCH   5   9
BRANCH   5  18
ATOM     18  C23 UNK d          25.023  28.764  29.428  0.00  0.00     0.026 A 
ATOM     19  C24 UNK d          23.761  28.323  28.748  0.00  0.00     0.002 A 
ATOM     20  C25 UNK d          22.600  28.852  29.537  0.00  0.00     0.000 A 
ATOM     21  C26 UNK d          23.145  29.620  30.704  0.00  0.00     0.000 A 
ATOM     22  C27 UNK d          24.642  29.566  30.637  0.00  0.00     0.002 A 
ENDBRANCH   5  18
BRANCH   1  23
ATOM     23  S5  UNK d          30.196  26.551  30.513  0.00  0.00    -0.086 SA
BRANCH  23  24
ATOM     24  C4  UNK d          31.327  27.410  30.997  0.00  0.00     0.004 A 
ATOM     25  C3  UNK d          31.046  28.768  31.569  0.00  0.00     0.055 A 
ATOM     26  C2  UNK d          32.176  29.626  32.053  0.00  0.00    -0.030 A 
ATOM     27  C1  UNK d          31.895  30.984  32.624  0.00  0.00     0.028 C 
ATOM     28  C30 UNK d          33.588  29.127  31.966  0.00  0.00     0.044 A 
ATOM     29  C29 UNK d          33.869  27.769  31.394  0.00  0.00     0.062 A 
ATOM     30  N31 UNK d          34.719  29.985  32.450  0.00  0.00    -0.105 NA
ATOM     31  C28 UNK d          32.739  26.910  30.910  0.00  0.00    -0.037 A 
BRANCH  31  32
ATOM     32  C32 UNK d          33.020  25.552  30.339  0.00  0.00     0.016 C 
ATOM     33  C33 UNK d          32.910  24.953  31.709  0.00  0.00     0.004 C 
ATOM     34  C34 UNK d          33.130  26.152  28.968  0.00  0.00     0.004 C 
ATOM     35  C35 UNK d          33.301  24.194  29.767  0.00  0.00     0.004 C 
ENDBRANCH  31  32
ENDBRANCH  23  24
ENDBRANCH   1  23
TORSDOF 7
ENDMDL
MODEL 7
REMARK VINA RESULT:      -1.1      4.157      8.279
REMARK  7 active torsions:
REMARK  status: ('A' for Active; 'I' for Inactive)
REMARK    1  A    between atoms: C4_4  and  S5_5 
REMARK    2  A    between atoms: S5_5  and  C6_6 
REMARK    3  A    between atoms: C10_10  and  C11_11 
REMARK    4  A    between atoms: C10_10  and  C23_23 
REMARK    5  A    between atoms: C11_11  and  C12_12 
REMARK    6  A    between atoms: C12_12  and  C13_13 
REMARK    7  A    between atoms: C28_28  and  C32_32 
ROOT
ATOM      1  C6  UNK d          26.778  30.168  29.796  0.00  0.00     0.099 A 
ATOM      2  C7  UNK d          27.585  29.643  30.946  0.00  0.00     0.236 A 
ATOM      3  O8  UNK d          27.712  30.450  32.204  0.00  0.00    -0.163 OA
ATOM      4  O9  UNK d          28.267  28.311  30.838  0.00  0.00    -0.313 OA
ATOM      5  C10 UNK d          28.140  27.504  29.580  0.00  0.00     0.107 A 
ATOM      6  C20 UNK d          27.332  28.028  28.430  0.00  0.00     0.083 A 
ATOM      7  C21 UNK d          26.651  29.360  28.538  0.00  0.00     0.121 A 
ATOM      8  O22 UNK d          25.843  29.885  27.389  0.00  0.00    -0.194 OA
ENDROOT
BRANCH   5   9
ATOM      9  C11 UNK d          28.315  26.379  28.604  0.00  0.00     0.028 C 
BRANCH   9  10
ATOM     10  C12 UNK d          29.179  26.565  27.391  0.00  0.00     0.002 C 
BRANCH  10  11
ATOM     11  C13 UNK d          30.668  26.419  27.502  0.00  0.00     0.000 A 
ATOM     12  C14 UNK d          31.550  27.624  27.377  0.00  0.00     0.003 A 
ATOM     13  C15 UNK d          33.040  27.478  27.487  0.00  0.00     0.033 A 
ATOM     14  C16 UNK d          33.646  26.126  27.722  0.00  0.00     0.152 A 
ATOM     15  O17 UNK d          35.134  25.980  27.832  0.00  0.00    -0.224 OA
ATOM     16  C18 UNK d          32.762  24.920  27.846  0.00  0.00     0.033 A 
ATOM     17  C19 UNK d          31.273  25.066  27.736  0.00  0.00     0.003 A 
ENDBRANCH  10  11
ENDBRANCH   9  10
ENDBRANCH   5   9
BRANCH   5  18
ATOM     18  C23 UNK d          29.009  26.588  30.391  0.00  0.00     0.026 A 
ATOM     19  C24 UNK d          28.698  25.165  30.747  0.00  0.00     0.002 A 
ATOM     20  C25 UNK d          29.838  24.632  31.564  0.00  0.00     0.000 A 
ATOM     21  C26 UNK d          30.853  25.727  31.712  0.00  0.00     0.000 A 
ATOM     22  C27 UNK d          30.340  26.936  30.987  0.00  0.00     0.002 A 
ENDBRANCH   5  18
BRANCH   1  23
ATOM     23  S5  UNK d          26.096  31.500  29.904  0.00  0.00    -0.086 SA
BRANCH  23  24
ATOM     24  C4  UNK d          26.714  32.712  29.272  0.00  0.00     0.004 A 
ATOM     25  C3  UNK d          28.197  32.771  29.056  0.00  0.00     0.055 A 
ATOM     26  C2  UNK d          28.815  33.983  28.424  0.00  0.00    -0.030 A 
ATOM     27  C1  UNK d          30.298  34.043  28.208  0.00  0.00     0.028 C 
ATOM     28  C30 UNK d          27.950  35.135  28.008  0.00  0.00     0.044 A 
ATOM     29  C29 UNK d          26.466  35.075  28.223  0.00  0.00     0.062 A 
ATOM     30  N31 UNK d          28.567  36.347  27.375  0.00  0.00    -0.105 NA
ATOM     31  C28 UNK d          25.849  33.864  28.855  0.00  0.00    -0.037 A 
BRANCH  31  32
ATOM     32  C32 UNK d          24.365  33.804  29.071  0.00  0.00     0.016 C 
ATOM     33  C33 UNK d          24.523  34.551  30.362  0.00  0.00     0.004 C 
ATOM     34  C34 UNK d          24.208  33.057  27.780  0.00  0.00     0.004 C 
ATOM     35  C35 UNK d          22.882  33.744  29.287  0.00  0.00     0.004 C 
ENDBRANCH  31  32
ENDBRANCH  23  24
ENDBRANCH   1  23
TORSDOF 7
ENDMDL
MODEL 8
REMARK VINA RESULT:      -1.1      1.748      1.990
REMARK  7 active torsions:
REMARK  status: ('A' for Active; 'I' for Inactive)
REMARK    1  A    between atoms: C4_4  and  S5_5 
REMARK    2  A    between atoms: S5_5  and  C6_6 
REMARK    3  A    between atoms: C10_10  and  C11_11 
REMARK    4  A    between atoms: C10_10  and  C23_23 
REMARK    5  A    between atoms: C11_11  and  C12_12 
REMARK    6  A    between atoms: C12_12  and  C13_13 
REMARK    7  A    between atoms: C28_28  and  C32_32 
ROOT
ATOM      1  C6  UNK d          29.632  35.374  30.051  0.00  0.00     0.099 A 
ATOM      2  C7  UNK d          28.571  35.752  31.041  0.00  0.00     0.236 A 
ATOM      3  O8  UNK d          28.958  36.273  32.393  0.00  0.00    -0.163 OA
ATOM      4  O9  UNK d          27.122  35.610  30.678  0.00  0.00    -0.313 OA
ATOM      5  C10 UNK d          26.735  35.089  29.326  0.00  0.00     0.107 A 
ATOM      6  C20 UNK d          27.796  34.711  28.336  0.00  0.00     0.083 A 
ATOM      7  C21 UNK d          29.245  34.853  28.698  0.00  0.00     0.121 A 
ATOM      8  O22 UNK d          30.306  34.475  27.708  0.00  0.00    -0.194 OA
ENDROOT
BRANCH   5   9
ATOM      9  C11 UNK d          25.875  34.647  28.179  0.00  0.00     0.028 C 
BRANCH   9  10
ATOM     10  C12 UNK d          26.121  33.318  27.526  0.00  0.00     0.002 C 
BRANCH  10  11
ATOM     11  C13 UNK d          25.409  32.095  28.022  0.00  0.00     0.000 A 
ATOM     12  C14 UNK d          24.128  31.659  27.375  0.00  0.00     0.003 A 
ATOM     13  C15 UNK d          23.416  30.436  27.872  0.00  0.00     0.033 A 
ATOM     14  C16 UNK d          23.984  29.649  29.015  0.00  0.00     0.152 A 
ATOM     15  O17 UNK d          23.271  28.426  29.511  0.00  0.00    -0.224 OA
ATOM     16  C18 UNK d          25.265  30.085  29.662  0.00  0.00     0.033 A 
ATOM     17  C19 UNK d          25.978  31.308  29.166  0.00  0.00     0.003 A 
ENDBRANCH  10  11
ENDBRANCH   9  10
ENDBRANCH   5   9
BRANCH   5  18
ATOM     18  C23 UNK d          25.375  35.314  29.918  0.00  0.00     0.026 A 
ATOM     19  C24 UNK d          24.641  34.370  30.823  0.00  0.00     0.002 A 
ATOM     20  C25 UNK d          23.323  34.995  31.173  0.00  0.00     0.000 A 
ATOM     21  C26 UNK d          23.243  36.325  30.483  0.00  0.00     0.000 A 
ATOM     22  C27 UNK d          24.511  36.522  29.707  0.00  0.00     0.002 A 
ENDBRANCH   5  18
BRANCH   1  23
ATOM     23  S5  UNK d          31.081  35.516  30.413  0.00  0.00    -0.086 SA
BRANCH  23  24
ATOM     24  C4  UNK d          31.866  34.315  30.849  0.00  0.00     0.004 A 
ATOM     25  C3  UNK d          31.169  33.161  31.506  0.00  0.00     0.055 A 
ATOM     26  C2  UNK d          31.955  31.960  31.941  0.00  0.00    -0.030 A 
ATOM     27  C1  UNK d          31.258  30.805  32.599  0.00  0.00     0.028 C 
ATOM     28  C30 UNK d          33.438  31.913  31.720  0.00  0.00     0.044 A 
ATOM     29  C29 UNK d          34.135  33.067  31.063  0.00  0.00     0.062 A 
ATOM     30  N31 UNK d          34.223  30.711  32.156  0.00  0.00    -0.105 NA
ATOM     31  C28 UNK d          33.349  34.268  30.627  0.00  0.00    -0.037 A 
BRANCH  31  32
ATOM     32  C32 UNK d          34.046  35.422  29.970  0.00  0.00     0.016 C 
ATOM     33  C33 UNK d          33.729  34.846  28.622  0.00  0.00     0.004 C 
ATOM     34  C34 UNK d          34.363  35.998  31.318  0.00  0.00     0.004 C 
ATOM     35  C35 UNK d          34.744  36.576  29.313  0.00  0.00     0.004 C 
ENDBRANCH  31  32
ENDBRANCH  23  24
ENDBRANCH   1  23
TORSDOF 7
ENDMDL
MODEL 9
REMARK VINA RESULT:      -1.0      4.439      7.834
REMARK  7 active torsions:
REMARK  status: ('A' for Active; 'I' for Inactive)
REMARK    1  A    between atoms: C4_4  and  S5_5 
REMARK    2  A    between atoms: S5_5  and  C6_6 
REMARK    3  A    between atoms: C10_10  and  C11_11 
REMARK    4  A    between atoms: C10_10  and  C23_23 
REMARK    5  A    between atoms: C11_11  and  C12_12 
REMARK    6  A    between atoms: C12_12  and  C13_13 
REMARK    7  A    between atoms: C28_28  and  C32_32 
ROOT
ATOM      1  C6  UNK d          26.410  28.996  30.041  0.00  0.00     0.099 A 
ATOM      2  C7  UNK d          25.673  29.852  31.028  0.00  0.00     0.236 A 
ATOM      3  O8  UNK d          25.496  29.385  32.442  0.00  0.00    -0.163 OA
ATOM      4  O9  UNK d          25.113  31.176  30.600  0.00  0.00    -0.313 OA
ATOM      5  C10 UNK d          25.290  31.644  29.185  0.00  0.00     0.107 A 
ATOM      6  C20 UNK d          26.027  30.787  28.199  0.00  0.00     0.083 A 
ATOM      7  C21 UNK d          26.587  29.463  28.627  0.00  0.00     0.121 A 
ATOM      8  O22 UNK d          27.324  28.607  27.641  0.00  0.00    -0.194 OA
ENDROOT
BRANCH   5   9
ATOM      9  C11 UNK d          25.200  32.514  27.967  0.00  0.00     0.028 C 
BRANCH   9  10
ATOM     10  C12 UNK d          26.444  33.107  27.375  0.00  0.00     0.002 C 
BRANCH  10  11
ATOM     11  C13 UNK d          27.168  34.205  28.096  0.00  0.00     0.000 A 
ATOM     12  C14 UNK d          26.503  35.534  28.299  0.00  0.00     0.003 A 
ATOM     13  C15 UNK d          27.227  36.632  29.020  0.00  0.00     0.033 A 
ATOM     14  C16 UNK d          28.616  36.402  29.539  0.00  0.00     0.152 A 
ATOM     15  O17 UNK d          29.339  37.500  30.260  0.00  0.00    -0.224 OA
ATOM     16  C18 UNK d          29.281  35.072  29.336  0.00  0.00     0.033 A 
ATOM     17  C19 UNK d          28.557  33.974  28.615  0.00  0.00     0.003 A 
ENDBRANCH  10  11
ENDBRANCH   9  10
ENDBRANCH   5   9
BRANCH   5  18
ATOM     18  C23 UNK d          24.521  32.802  29.748  0.00  0.00     0.026 A 
ATOM     19  C24 UNK d          24.866  33.569  30.990  0.00  0.00     0.002 A 
ATOM     20  C25 UNK d          23.831  34.638  31.177  0.00  0.00     0.000 A 
ATOM     21  C26 UNK d          22.846  34.532  30.051  0.00  0.00     0.000 A 
ATOM     22  C27 UNK d          23.273  33.397  29.167  0.00  0.00     0.002 A 
ENDBRANCH   5  18
BRANCH   1  23
ATOM     23  S5  UNK d          26.970  27.672  30.469  0.00  0.00    -0.086 SA
BRANCH  23  24
ATOM     24  C4  UNK d          26.245  26.404  30.127  0.00  0.00     0.004 A 
ATOM     25  C3  UNK d          24.759  26.422  29.925  0.00  0.00     0.055 A 
ATOM     26  C2  UNK d          24.033  25.155  29.583  0.00  0.00    -0.030 A 
ATOM     27  C1  UNK d          22.547  25.172  29.381  0.00  0.00     0.028 C 
ATOM     28  C30 UNK d          24.794  23.870  29.442  0.00  0.00     0.044 A 
ATOM     29  C29 UNK d          26.280  23.852  29.644  0.00  0.00     0.062 A 
ATOM     30  N31 UNK d          24.068  22.602  29.100  0.00  0.00    -0.105 NA
ATOM     31  C28 UNK d          27.006  25.119  29.986  0.00  0.00    -0.037 A 
BRANCH  31  32
ATOM     32  C32 UNK d          28.492  25.102  30.188  0.00  0.00     0.016 C 
ATOM     33  C33 UNK d          28.693  25.388  28.729  0.00  0.00     0.004 C 
ATOM     34  C34 UNK d          28.290  24.816  31.647  0.00  0.00     0.004 C 
ATOM     35  C35 UNK d          29.978  25.084  30.390  0.00  0.00     0.004 C 
ENDBRANCH  31  32
ENDBRANCH  23  24
ENDBRANCH   1  23
TORSDOF 7
ENDMDL
