MODEL 1
REMARK VINA RESULT:      -2.6      0.000      0.000
REMARK  3 active torsions:
REMARK  status: ('A' for Active; 'I' for Inactive)
REMARK    1  A    between atoms: C8_8  and  C11_11 
REMARK    2  A    between atoms: C11_11  and  C12_12 
REMARK    3  A    between atoms: C12_12  and  C13_13 
ROOT
ATOM      1  C1  UNK d          25.882  35.541  28.713  0.00  0.00     0.003 A 
ATOM      2  C2  UNK d          25.305  35.407  29.292  0.00  0.00     0.044 A 
ATOM      3  C3  UNK d          24.824  34.740  29.247  0.00  0.00     0.213 A 
ATOM      4  C4  UNK d          25.979  35.010  28.094  0.00  0.00     0.002 A 
ATOM      5  C5  UNK d          25.499  34.338  28.045  0.00  0.00     0.021 A 
ATOM      6  C6  UNK d          24.921  34.203  28.622  0.00  0.00     0.120 A 
ATOM      7  N7  UNK d          24.441  33.534  28.575  0.00  0.00    -0.242 NA
ATOM      8  C8  UNK d          24.537  32.998  27.951  0.00  0.00     0.082 A 
ATOM      9  C9  UNK d          25.118  33.137  27.375  0.00  0.00     0.019 A 
ATOM     10  C10 UNK d          25.597  33.807  27.424  0.00  0.00     0.003 A 
ATOM     11  O19 UNK d          24.248  34.605  29.822  0.00  0.00    -0.285 OA
ENDROOT
BRANCH   8  12
ATOM     12  C11 UNK d          24.058  32.328  27.904  0.00  0.00     0.019 C 
BRANCH  12  13
ATOM     13  C12 UNK d          24.380  31.581  28.041  0.00  0.00     0.002 C 
BRANCH  13  14
ATOM     14  C13 UNK d          23.886  30.920  28.074  0.00  0.00     0.000 A 
ATOM     15  C14 UNK d          23.671  30.606  28.804  0.00  0.00     0.000 A 
ATOM     16  C15 UNK d          23.179  29.946  28.838  0.00  0.00     0.000 A 
ATOM     17  C16 UNK d          22.902  29.600  28.141  0.00  0.00     0.000 A 
ATOM     18  C17 UNK d          23.122  29.920  27.408  0.00  0.00     0.000 A 
ATOM     19  C18 UNK d          23.613  30.578  27.377  0.00  0.00     0.000 A 
ENDBRANCH  13  14
ENDBRANCH  12  13
ENDBRANCH   8  12
TORSDOF 3
ENDMDL
MODEL 2
REMARK VINA RESULT:      -2.5      1.258      2.143
REMARK  3 active torsions:
REMARK  status: ('A' for Active; 'I' for Inactive)
REMARK    1  A    between atoms: C8_8  and  C11_11 
REMARK    2  A    between atoms: C11_11  and  C12_12 
REMARK    3  A    between atoms: C12_12  and  C13_13 
ROOT
ATOM      1  C1  UNK d          25.813  37.141  29.217  0.00  0.00     0.003 A 
ATOM      2  C2  UNK d          26.227  36.765  28.607  0.00  0.00     0.044 A 
ATOM      3  C3  UNK d          26.092  35.967  28.448  0.00  0.00     0.213 A 
ATOM      4  C4  UNK d          25.268  36.724  29.667  0.00  0.00     0.002 A 
ATOM      5  C5  UNK d          25.128  35.924  29.512  0.00  0.00     0.021 A 
ATOM      6  C6  UNK d          25.541  35.545  28.902  0.00  0.00     0.120 A 
ATOM      7  N7  UNK d          25.403  34.746  28.746  0.00  0.00    -0.242 NA
ATOM      8  C8  UNK d          24.853  34.325  29.199  0.00  0.00     0.082 A 
ATOM      9  C9  UNK d          24.441  34.709  29.809  0.00  0.00     0.019 A 
ATOM     10  C10 UNK d          24.581  35.506  29.963  0.00  0.00     0.003 A 
ATOM     11  O19 UNK d          26.503  35.590  27.841  0.00  0.00    -0.285 OA
ENDROOT
BRANCH   8  12
ATOM     12  C11 UNK d          24.715  33.526  29.043  0.00  0.00     0.019 C 
BRANCH  12  13
ATOM     13  C12 UNK d          24.014  33.295  28.675  0.00  0.00     0.002 C 
BRANCH  13  14
ATOM     14  C13 UNK d          23.919  32.513  28.425  0.00  0.00     0.000 A 
ATOM     15  C14 UNK d          23.957  32.331  27.624  0.00  0.00     0.000 A 
ATOM     16  C15 UNK d          23.862  31.551  27.375  0.00  0.00     0.000 A 
ATOM     17  C16 UNK d          23.728  30.953  27.929  0.00  0.00     0.000 A 
ATOM     18  C17 UNK d          23.690  31.142  28.736  0.00  0.00     0.000 A 
ATOM     19  C18 UNK d          23.786  31.921  28.981  0.00  0.00     0.000 A 
ENDBRANCH  13  14
ENDBRANCH  12  13
ENDBRANCH   8  12
TORSDOF 3
ENDMDL
MODEL 3
REMARK VINA RESULT:      -2.5      1.003      4.288
REMARK  3 active torsions:
REMARK  status: ('A' for Active; 'I' for Inactive)
REMARK    1  A    between atoms: C8_8  and  C11_11 
REMARK    2  A    between atoms: C11_11  and  C12_12 
REMARK    3  A    between atoms: C12_12  and  C13_13 
ROOT
ATOM      1  C1  UNK d          23.260  29.946  28.808  0.00  0.00     0.003 A 
ATOM      2  C2  UNK d          23.288  30.375  29.516  0.00  0.00     0.044 A 
ATOM      3  C3  UNK d          23.546  31.157  29.513  0.00  0.00     0.213 A 
ATOM      4  C4  UNK d          23.487  30.297  28.101  0.00  0.00     0.002 A 
ATOM      5  C5  UNK d          23.746  31.082  28.093  0.00  0.00     0.021 A 
ATOM      6  C6  UNK d          23.776  31.512  28.799  0.00  0.00     0.120 A 
ATOM      7  N7  UNK d          24.034  32.296  28.793  0.00  0.00    -0.242 NA
ATOM      8  C8  UNK d          24.264  32.651  28.081  0.00  0.00     0.082 A 
ATOM      9  C9  UNK d          24.232  32.215  27.375  0.00  0.00     0.019 A 
ATOM     10  C10 UNK d          23.974  31.433  27.384  0.00  0.00     0.003 A 
ATOM     11  O19 UNK d          23.575  31.587  30.217  0.00  0.00    -0.285 OA
ENDROOT
BRANCH   8  12
ATOM     12  C11 UNK d          24.522  33.435  28.074  0.00  0.00     0.019 C 
BRANCH  12  13
ATOM     13  C12 UNK d          25.330  33.601  28.087  0.00  0.00     0.002 C 
BRANCH  13  14
ATOM     14  C13 UNK d          25.589  34.385  28.090  0.00  0.00     0.000 A 
ATOM     15  C14 UNK d          25.528  34.834  28.777  0.00  0.00     0.000 A 
ATOM     16  C15 UNK d          25.787  35.617  28.780  0.00  0.00     0.000 A 
ATOM     17  C16 UNK d          26.106  35.950  28.094  0.00  0.00     0.000 A 
ATOM     18  C17 UNK d          26.165  35.493  27.404  0.00  0.00     0.000 A 
ATOM     19  C18 UNK d          25.906  34.713  27.405  0.00  0.00     0.000 A 
ENDBRANCH  13  14
ENDBRANCH  12  13
ENDBRANCH   8  12
TORSDOF 3
ENDMDL
MODEL 4
REMARK VINA RESULT:      -2.3      1.363      4.684
REMARK  3 active torsions:
REMARK  status: ('A' for Active; 'I' for Inactive)
REMARK    1  A    between atoms: C8_8  and  C11_11 
REMARK    2  A    between atoms: C11_11  and  C12_12 
REMARK    3  A    between atoms: C12_12  and  C13_13 
ROOT
ATOM      1  C1  UNK d          24.520  31.080  27.651  0.00  0.00     0.003 A 
ATOM      2  C2  UNK d          23.890  31.611  27.733  0.00  0.00     0.044 A 
ATOM      3  C3  UNK d          24.029  32.422  27.705  0.00  0.00     0.213 A 
ATOM      4  C4  UNK d          25.284  31.358  27.541  0.00  0.00     0.002 A 
ATOM      5  C5  UNK d          25.430  32.171  27.513  0.00  0.00     0.021 A 
ATOM      6  C6  UNK d          24.801  32.704  27.595  0.00  0.00     0.120 A 
ATOM      7  N7  UNK d          24.944  33.517  27.567  0.00  0.00    -0.242 NA
ATOM      8  C8  UNK d          25.715  33.798  27.457  0.00  0.00     0.082 A 
ATOM      9  C9  UNK d          26.342  33.260  27.375  0.00  0.00     0.019 A 
ATOM     10  C10 UNK d          26.197  32.450  27.403  0.00  0.00     0.003 A 
ATOM     11  O19 UNK d          23.403  32.953  27.787  0.00  0.00    -0.285 OA
ENDROOT
BRANCH   8  12
ATOM     12  C11 UNK d          25.858  34.610  27.429  0.00  0.00     0.019 C 
BRANCH  12  13
ATOM     13  C12 UNK d          26.299  34.971  28.025  0.00  0.00     0.002 C 
BRANCH  13  14
ATOM     14  C13 UNK d          26.362  35.794  28.051  0.00  0.00     0.000 A 
ATOM     15  C14 UNK d          25.948  36.219  28.622  0.00  0.00     0.000 A 
ATOM     16  C15 UNK d          26.012  37.040  28.647  0.00  0.00     0.000 A 
ATOM     17  C16 UNK d          26.489  37.436  28.101  0.00  0.00     0.000 A 
ATOM     18  C17 UNK d          26.903  37.002  27.527  0.00  0.00     0.000 A 
ATOM     19  C18 UNK d          26.838  36.184  27.505  0.00  0.00     0.000 A 
ENDBRANCH  13  14
ENDBRANCH  12  13
ENDBRANCH   8  12
TORSDOF 3
ENDMDL
MODEL 5
REMARK VINA RESULT:      -2.3      1.164      4.414
REMARK  3 active torsions:
REMARK  status: ('A' for Active; 'I' for Inactive)
REMARK    1  A    between atoms: C8_8  and  C11_11 
REMARK    2  A    between atoms: C11_11  and  C12_12 
REMARK    3  A    between atoms: C12_12  and  C13_13 
ROOT
ATOM      1  C1  UNK d          23.637  30.181  27.901  0.00  0.00     0.003 A 
ATOM      2  C2  UNK d          23.594  30.230  28.727  0.00  0.00     0.044 A 
ATOM      3  C3  UNK d          23.701  30.955  29.103  0.00  0.00     0.213 A 
ATOM      4  C4  UNK d          23.785  30.853  27.454  0.00  0.00     0.002 A 
ATOM      5  C5  UNK d          23.894  31.583  27.825  0.00  0.00     0.021 A 
ATOM      6  C6  UNK d          23.852  31.635  28.651  0.00  0.00     0.120 A 
ATOM      7  N7  UNK d          23.959  32.363  29.024  0.00  0.00    -0.242 NA
ATOM      8  C8  UNK d          24.109  33.041  28.573  0.00  0.00     0.082 A 
ATOM      9  C9  UNK d          24.151  32.985  27.746  0.00  0.00     0.019 A 
ATOM     10  C10 UNK d          24.043  32.257  27.376  0.00  0.00     0.003 A 
ATOM     11  O19 UNK d          23.659  31.006  29.925  0.00  0.00    -0.285 OA
ENDROOT
BRANCH   8  12
ATOM     12  C11 UNK d          24.217  33.769  28.946  0.00  0.00     0.019 C 
BRANCH  12  13
ATOM     13  C12 UNK d          24.979  34.050  29.086  0.00  0.00     0.002 C 
BRANCH  13  14
ATOM     14  C13 UNK d          25.088  34.790  29.437  0.00  0.00     0.000 A 
ATOM     15  C14 UNK d          25.457  35.393  29.016  0.00  0.00     0.000 A 
ATOM     16  C15 UNK d          25.565  36.132  29.367  0.00  0.00     0.000 A 
ATOM     17  C16 UNK d          25.304  36.265  30.139  0.00  0.00     0.000 A 
ATOM     18  C17 UNK d          24.933  35.654  30.559  0.00  0.00     0.000 A 
ATOM     19  C18 UNK d          24.826  34.919  30.207  0.00  0.00     0.000 A 
ENDBRANCH  13  14
ENDBRANCH  12  13
ENDBRANCH   8  12
TORSDOF 3
ENDMDL
MODEL 6
REMARK VINA RESULT:      -2.2      1.635      4.756
REMARK  3 active torsions:
REMARK  status: ('A' for Active; 'I' for Inactive)
REMARK    1  A    between atoms: C8_8  and  C11_11 
REMARK    2  A    between atoms: C11_11  and  C12_12 
REMARK    3  A    between atoms: C12_12  and  C13_13 
ROOT
ATOM      1  C1  UNK d          22.519  28.099  28.950  0.00  0.00     0.003 A 
ATOM      2  C2  UNK d          22.971  28.375  29.586  0.00  0.00     0.044 A 
ATOM      3  C3  UNK d          23.405  29.072  29.512  0.00  0.00     0.213 A 
ATOM      4  C4  UNK d          22.501  28.518  28.243  0.00  0.00     0.002 A 
ATOM      5  C5  UNK d          22.933  29.217  28.163  0.00  0.00     0.021 A 
ATOM      6  C6  UNK d          23.386  29.495  28.799  0.00  0.00     0.120 A 
ATOM      7  N7  UNK d          23.819  30.193  28.722  0.00  0.00    -0.242 NA
ATOM      8  C8  UNK d          23.801  30.615  28.009  0.00  0.00     0.082 A 
ATOM      9  C9  UNK d          23.345  30.333  27.375  0.00  0.00     0.019 A 
ATOM     10  C10 UNK d          22.914  29.635  27.455  0.00  0.00     0.003 A 
ATOM     11  O19 UNK d          23.856  29.349  30.145  0.00  0.00    -0.285 OA
ENDROOT
BRANCH   8  12
ATOM     12  C11 UNK d          24.233  31.313  27.932  0.00  0.00     0.019 C 
BRANCH  12  13
ATOM     13  C12 UNK d          23.858  32.042  28.022  0.00  0.00     0.002 C 
BRANCH  13  14
ATOM     14  C13 UNK d          24.306  32.735  28.057  0.00  0.00     0.000 A 
ATOM     15  C14 UNK d          24.366  33.148  28.767  0.00  0.00     0.000 A 
ATOM     16  C15 UNK d          24.814  33.839  28.802  0.00  0.00     0.000 A 
ATOM     17  C16 UNK d          25.199  34.118  28.127  0.00  0.00     0.000 A 
ATOM     18  C17 UNK d          25.135  33.698  27.414  0.00  0.00     0.000 A 
ATOM     19  C18 UNK d          24.688  33.008  27.382  0.00  0.00     0.000 A 
ENDBRANCH  13  14
ENDBRANCH  12  13
ENDBRANCH   8  12
TORSDOF 3
ENDMDL
MODEL 7
REMARK VINA RESULT:      -2.1      1.790      2.775
REMARK  3 active torsions:
REMARK  status: ('A' for Active; 'I' for Inactive)
REMARK    1  A    between atoms: C8_8  and  C11_11 
REMARK    2  A    between atoms: C11_11  and  C12_12 
REMARK    3  A    between atoms: C12_12  and  C13_13 
ROOT
ATOM      1  C1  UNK d          28.402  36.933  28.527  0.00  0.00     0.003 A 
ATOM      2  C2  UNK d          27.672  37.144  28.857  0.00  0.00     0.044 A 
ATOM      3  C3  UNK d          27.011  36.667  28.734  0.00  0.00     0.213 A 
ATOM      4  C4  UNK d          28.471  36.249  28.078  0.00  0.00     0.002 A 
ATOM      5  C5  UNK d          27.812  35.767  27.952  0.00  0.00     0.021 A 
ATOM      6  C6  UNK d          27.081  35.976  28.280  0.00  0.00     0.120 A 
ATOM      7  N7  UNK d          26.421  35.496  28.156  0.00  0.00    -0.242 NA
ATOM      8  C8  UNK d          26.490  34.806  27.703  0.00  0.00     0.082 A 
ATOM      9  C9  UNK d          27.225  34.601  27.376  0.00  0.00     0.019 A 
ATOM     10  C10 UNK d          27.882  35.081  27.501  0.00  0.00     0.003 A 
ATOM     11  O19 UNK d          26.283  36.875  29.062  0.00  0.00    -0.285 OA
ENDROOT
BRANCH   8  12
ATOM     12  C11 UNK d          25.831  34.326  27.578  0.00  0.00     0.019 C 
BRANCH  12  13
ATOM     13  C12 UNK d          25.676  33.699  28.091  0.00  0.00     0.002 C 
BRANCH  13  14
ATOM     14  C13 UNK d          24.992  33.246  27.993  0.00  0.00     0.000 A 
ATOM     15  C14 UNK d          24.311  33.436  28.415  0.00  0.00     0.000 A 
ATOM     16  C15 UNK d          23.629  32.983  28.317  0.00  0.00     0.000 A 
ATOM     17  C16 UNK d          23.629  32.341  27.797  0.00  0.00     0.000 A 
ATOM     18  C17 UNK d          24.319  32.154  27.375  0.00  0.00     0.000 A 
ATOM     19  C18 UNK d          24.997  32.607  27.475  0.00  0.00     0.000 A 
ENDBRANCH  13  14
ENDBRANCH  12  13
ENDBRANCH   8  12
TORSDOF 3
ENDMDL
MODEL 8
REMARK VINA RESULT:      -2.1      1.631      2.196
REMARK  3 active torsions:
REMARK  status: ('A' for Active; 'I' for Inactive)
REMARK    1  A    between atoms: C8_8  and  C11_11 
REMARK    2  A    between atoms: C11_11  and  C12_12 
REMARK    3  A    between atoms: C12_12  and  C13_13 
ROOT
ATOM      1  C1  UNK d          26.036  33.968  27.375  0.00  0.00     0.003 A 
ATOM      2  C2  UNK d          26.622  33.383  27.389  0.00  0.00     0.044 A 
ATOM      3  C3  UNK d          26.409  32.587  27.413  0.00  0.00     0.213 A 
ATOM      4  C4  UNK d          25.242  33.759  27.384  0.00  0.00     0.002 A 
ATOM      5  C5  UNK d          25.022  32.963  27.407  0.00  0.00     0.021 A 
ATOM      6  C6  UNK d          25.606  32.376  27.421  0.00  0.00     0.120 A 
ATOM      7  N7  UNK d          25.390  31.580  27.444  0.00  0.00    -0.242 NA
ATOM      8  C8  UNK d          24.589  31.369  27.453  0.00  0.00     0.082 A 
ATOM      9  C9  UNK d          24.007  31.960  27.439  0.00  0.00     0.019 A 
ATOM     10  C10 UNK d          24.226  32.755  27.416  0.00  0.00     0.003 A 
ATOM     11  O19 UNK d          26.991  32.003  27.427  0.00  0.00    -0.285 OA
ENDROOT
BRANCH   8  12
ATOM     12  C11 UNK d          24.372  30.573  27.476  0.00  0.00     0.019 C 
BRANCH  12  13
ATOM     13  C12 UNK d          23.837  30.310  28.045  0.00  0.00     0.002 C 
BRANCH  13  14
ATOM     14  C13 UNK d          23.690  29.501  28.130  0.00  0.00     0.000 A 
ATOM     15  C14 UNK d          24.221  29.030  28.545  0.00  0.00     0.000 A 
ATOM     16  C15 UNK d          24.075  28.223  28.630  0.00  0.00     0.000 A 
ATOM     17  C16 UNK d          23.396  27.889  28.298  0.00  0.00     0.000 A 
ATOM     18  C17 UNK d          22.863  28.369  27.881  0.00  0.00     0.000 A 
ATOM     19  C18 UNK d          23.012  29.173  27.798  0.00  0.00     0.000 A 
ENDBRANCH  13  14
ENDBRANCH  12  13
ENDBRANCH   8  12
TORSDOF 3
ENDMDL
MODEL 9
REMARK VINA RESULT:      -2.1      1.722      2.335
REMARK  3 active torsions:
REMARK  status: ('A' for Active; 'I' for Inactive)
REMARK    1  A    between atoms: C8_8  and  C11_11 
REMARK    2  A    between atoms: C11_11  and  C12_12 
REMARK    3  A    between atoms: C12_12  and  C13_13 
ROOT
ATOM      1  C1  UNK d          23.276  33.936  29.612  0.00  0.00     0.003 A 
ATOM      2  C2  UNK d          23.100  33.364  30.183  0.00  0.00     0.044 A 
ATOM      3  C3  UNK d          23.234  32.567  30.023  0.00  0.00     0.213 A 
ATOM      4  C4  UNK d          23.586  33.713  28.884  0.00  0.00     0.002 A 
ATOM      5  C5  UNK d          23.723  32.915  28.718  0.00  0.00     0.021 A 
ATOM      6  C6  UNK d          23.547  32.341  29.288  0.00  0.00     0.120 A 
ATOM      7  N7  UNK d          23.682  31.544  29.125  0.00  0.00    -0.242 NA
ATOM      8  C8  UNK d          23.994  31.318  28.392  0.00  0.00     0.082 A 
ATOM      9  C9  UNK d          24.169  31.898  27.823  0.00  0.00     0.019 A 
ATOM     10  C10 UNK d          24.033  32.693  27.989  0.00  0.00     0.003 A 
ATOM     11  O19 UNK d          23.059  31.995  30.591  0.00  0.00    -0.285 OA
ENDROOT
BRANCH   8  12
ATOM     12  C11 UNK d          24.130  30.521  28.228  0.00  0.00     0.019 C 
BRANCH  12  13
ATOM     13  C12 UNK d          23.742  30.159  27.597  0.00  0.00     0.002 C 
BRANCH  13  14
ATOM     14  C13 UNK d          23.754  29.337  27.523  0.00  0.00     0.000 A 
ATOM     15  C14 UNK d          24.472  28.943  27.449  0.00  0.00     0.000 A 
ATOM     16  C15 UNK d          24.484  28.121  27.375  0.00  0.00     0.000 A 
ATOM     17  C16 UNK d          23.776  27.696  27.375  0.00  0.00     0.000 A 
ATOM     18  C17 UNK d          23.054  28.099  27.450  0.00  0.00     0.000 A 
ATOM     19  C18 UNK d          23.046  28.917  27.523  0.00  0.00     0.000 A 
ENDBRANCH  13  14
ENDBRANCH  12  13
ENDBRANCH   8  12
TORSDOF 3
ENDMDL
