MODEL 1
REMARK VINA RESULT:      -1.6      0.000      0.000
REMARK  4 active torsions:
REMARK  status: ('A' for Active; 'I' for Inactive)
REMARK    1  A    between atoms: C2_2  and  C4_4 
REMARK    2  A    between atoms: C4_4  and  C6_6 
REMARK    3  A    between atoms: C6_6  and  C7_7 
REMARK    4  A    between atoms: C7_7  and  C9_9 
ROOT
ATOM      1  C7  UNK d          23.871  32.611  28.712  0.00  0.00     0.104 C 
ATOM      2  O8  UNK d          23.266  32.224  30.029  0.00  0.00    -0.195 OA
ENDROOT
BRANCH   1   3
ATOM      3  C6  UNK d          23.633  31.760  27.499  0.00  0.00     0.098 C 
BRANCH   3   4
ATOM      4  C4  UNK d          23.748  30.268  27.596  0.00  0.00     0.245 C 
ATOM      5  O5  UNK d          22.514  29.431  27.760  0.00  0.00    -0.211 OA
BRANCH   4   6
ATOM      6  C2  UNK d          25.095  29.613  27.529  0.00  0.00     0.218 C 
ATOM      7  O1  UNK d          25.199  28.124  27.375  0.00  0.00    -0.645 OA
ATOM      8  O3  UNK d          26.339  30.446  27.616  0.00  0.00    -0.645 OA
ENDBRANCH   4   6
ENDBRANCH   3   4
ENDBRANCH   1   3
BRANCH   1   9
ATOM      9  C9  UNK d          24.712  33.848  28.607  0.00  0.00    -0.023 A 
ATOM     10  C10 UNK d          24.573  34.939  29.628  0.00  0.00     0.024 A 
ATOM     11  C11 UNK d          25.414  36.176  29.523  0.00  0.00     0.004 A 
ATOM     12  C12 UNK d          26.395  36.323  28.398  0.00  0.00     0.001 A 
ATOM     13  C13 UNK d          26.534  35.233  27.377  0.00  0.00     0.004 A 
ATOM     14  C14 UNK d          25.693  33.995  27.482  0.00  0.00     0.024 A 
ENDBRANCH   1   9
TORSDOF 4
ENDMDL
MODEL 2
REMARK VINA RESULT:      -1.5      0.961      1.948
REMARK  4 active torsions:
REMARK  status: ('A' for Active; 'I' for Inactive)
REMARK    1  A    between atoms: C2_2  and  C4_4 
REMARK    2  A    between atoms: C4_4  and  C6_6 
REMARK    3  A    between atoms: C6_6  and  C7_7 
REMARK    4  A    between atoms: C7_7  and  C9_9 
ROOT
ATOM      1  C7  UNK d          25.399  32.839  27.909  0.00  0.00     0.104 C 
ATOM      2  O8  UNK d          26.671  32.057  27.766  0.00  0.00    -0.195 OA
ENDROOT
BRANCH   1   3
ATOM      3  C6  UNK d          24.076  32.160  27.710  0.00  0.00     0.098 C 
BRANCH   3   4
ATOM      4  C4  UNK d          23.658  31.048  28.625  0.00  0.00     0.245 C 
ATOM      5  O5  UNK d          23.163  31.359  30.006  0.00  0.00    -0.211 OA
BRANCH   4   6
ATOM      6  C2  UNK d          23.737  29.624  28.159  0.00  0.00     0.218 C 
ATOM      7  O1  UNK d          22.504  28.929  27.663  0.00  0.00    -0.645 OA
ATOM      8  O3  UNK d          25.047  28.896  28.190  0.00  0.00    -0.645 OA
ENDBRANCH   4   6
ENDBRANCH   3   4
ENDBRANCH   1   3
BRANCH   1   9
ATOM      9  C9  UNK d          25.450  34.298  28.251  0.00  0.00    -0.023 A 
ATOM     10  C10 UNK d          24.735  34.809  29.466  0.00  0.00     0.024 A 
ATOM     11  C11 UNK d          24.785  36.269  29.808  0.00  0.00     0.004 A 
ATOM     12  C12 UNK d          25.551  37.218  28.934  0.00  0.00     0.001 A 
ATOM     13  C13 UNK d          26.266  36.707  27.719  0.00  0.00     0.004 A 
ATOM     14  C14 UNK d          26.215  35.247  27.377  0.00  0.00     0.024 A 
ENDBRANCH   1   9
TORSDOF 4
ENDMDL
MODEL 3
REMARK VINA RESULT:      -1.5      1.624      2.618
REMARK  4 active torsions:
REMARK  status: ('A' for Active; 'I' for Inactive)
REMARK    1  A    between atoms: C2_2  and  C4_4 
REMARK    2  A    between atoms: C4_4  and  C6_6 
REMARK    3  A    between atoms: C6_6  and  C7_7 
REMARK    4  A    between atoms: C7_7  and  C9_9 
ROOT
ATOM      1  C7  UNK d          24.943  32.875  28.376  0.00  0.00     0.104 C 
ATOM      2  O8  UNK d          26.411  32.565  28.402  0.00  0.00    -0.195 OA
ENDROOT
BRANCH   1   3
ATOM      3  C6  UNK d          23.998  31.970  27.642  0.00  0.00     0.098 C 
BRANCH   3   4
ATOM      4  C4  UNK d          23.623  30.642  28.229  0.00  0.00     0.245 C 
ATOM      5  O5  UNK d          22.954  29.607  27.375  0.00  0.00    -0.211 OA
BRANCH   4   6
ATOM      6  C2  UNK d          23.917  30.350  29.671  0.00  0.00     0.218 C 
ATOM      7  O1  UNK d          25.205  29.682  30.053  0.00  0.00    -0.645 OA
ATOM      8  O3  UNK d          22.924  30.724  30.730  0.00  0.00    -0.645 OA
ENDBRANCH   4   6
ENDBRANCH   3   4
ENDBRANCH   1   3
BRANCH   1   9
ATOM      9  C9  UNK d          24.421  34.090  29.084  0.00  0.00    -0.023 A 
ATOM     10  C10 UNK d          23.023  34.098  29.627  0.00  0.00     0.024 A 
ATOM     11  C11 UNK d          22.500  35.313  30.335  0.00  0.00     0.004 A 
ATOM     12  C12 UNK d          23.376  36.519  30.500  0.00  0.00     0.001 A 
ATOM     13  C13 UNK d          24.774  36.511  29.957  0.00  0.00     0.004 A 
ATOM     14  C14 UNK d          25.296  35.296  29.249  0.00  0.00     0.024 A 
ENDBRANCH   1   9
TORSDOF 4
ENDMDL
MODEL 4
REMARK VINA RESULT:      -1.5      1.295      2.540
REMARK  4 active torsions:
REMARK  status: ('A' for Active; 'I' for Inactive)
REMARK    1  A    between atoms: C2_2  and  C4_4 
REMARK    2  A    between atoms: C4_4  and  C6_6 
REMARK    3  A    between atoms: C6_6  and  C7_7 
REMARK    4  A    between atoms: C7_7  and  C9_9 
ROOT
ATOM      1  C7  UNK d          25.264  32.365  27.903  0.00  0.00     0.104 C 
ATOM      2  O8  UNK d          26.594  31.674  27.836  0.00  0.00    -0.195 OA
ENDROOT
BRANCH   1   3
ATOM      3  C6  UNK d          24.034  31.674  27.396  0.00  0.00     0.098 C 
BRANCH   3   4
ATOM      4  C4  UNK d          23.491  30.479  28.123  0.00  0.00     0.245 C 
ATOM      5  O5  UNK d          22.719  29.433  27.375  0.00  0.00    -0.211 OA
BRANCH   4   6
ATOM      6  C2  UNK d          23.719  30.331  29.598  0.00  0.00     0.218 C 
ATOM      7  O1  UNK d          22.795  31.002  30.571  0.00  0.00    -0.645 OA
ATOM      8  O3  UNK d          24.872  29.513  30.100  0.00  0.00    -0.645 OA
ENDBRANCH   4   6
ENDBRANCH   3   4
ENDBRANCH   1   3
BRANCH   1   9
ATOM      9  C9  UNK d          25.165  33.747  28.478  0.00  0.00    -0.023 A 
ATOM     10  C10 UNK d          26.011  34.853  27.921  0.00  0.00     0.024 A 
ATOM     11  C11 UNK d          25.912  36.235  28.495  0.00  0.00     0.004 A 
ATOM     12  C12 UNK d          24.967  36.511  29.628  0.00  0.00     0.001 A 
ATOM     13  C13 UNK d          24.122  35.404  30.185  0.00  0.00     0.004 A 
ATOM     14  C14 UNK d          24.221  34.022  29.610  0.00  0.00     0.024 A 
ENDBRANCH   1   9
TORSDOF 4
ENDMDL
MODEL 5
REMARK VINA RESULT:      -1.5      1.100      1.928
REMARK  4 active torsions:
REMARK  status: ('A' for Active; 'I' for Inactive)
REMARK    1  A    between atoms: C2_2  and  C4_4 
REMARK    2  A    between atoms: C4_4  and  C6_6 
REMARK    3  A    between atoms: C6_6  and  C7_7 
REMARK    4  A    between atoms: C7_7  and  C9_9 
ROOT
ATOM      1  C7  UNK d          24.005  32.552  28.943  0.00  0.00     0.104 C 
ATOM      2  O8  UNK d          23.239  32.278  30.203  0.00  0.00    -0.195 OA
ENDROOT
BRANCH   1   3
ATOM      3  C6  UNK d          24.093  31.503  27.875  0.00  0.00     0.098 C 
BRANCH   3   4
ATOM      4  C4  UNK d          24.892  30.256  28.113  0.00  0.00     0.245 C 
ATOM      5  O5  UNK d          24.477  28.965  27.471  0.00  0.00    -0.211 OA
BRANCH   4   6
ATOM      6  C2  UNK d          26.106  30.299  28.993  0.00  0.00     0.218 C 
ATOM      7  O1  UNK d          26.024  29.809  30.409  0.00  0.00    -0.645 OA
ATOM      8  O3  UNK d          27.402  30.832  28.458  0.00  0.00    -0.645 OA
ENDBRANCH   4   6
ENDBRANCH   3   4
ENDBRANCH   1   3
BRANCH   1   9
ATOM      9  C9  UNK d          24.684  33.876  28.751  0.00  0.00    -0.023 A 
ATOM     10  C10 UNK d          25.596  34.089  27.579  0.00  0.00     0.024 A 
ATOM     11  C11 UNK d          26.275  35.413  27.387  0.00  0.00     0.004 A 
ATOM     12  C12 UNK d          26.041  36.524  28.367  0.00  0.00     0.001 A 
ATOM     13  C13 UNK d          25.129  36.312  29.539  0.00  0.00     0.004 A 
ATOM     14  C14 UNK d          24.450  34.988  29.731  0.00  0.00     0.024 A 
ENDBRANCH   1   9
TORSDOF 4
ENDMDL
MODEL 6
REMARK VINA RESULT:      -1.4      3.230      5.544
REMARK  4 active torsions:
REMARK  status: ('A' for Active; 'I' for Inactive)
REMARK    1  A    between atoms: C2_2  and  C4_4 
REMARK    2  A    between atoms: C4_4  and  C6_6 
REMARK    3  A    between atoms: C6_6  and  C7_7 
REMARK    4  A    between atoms: C7_7  and  C9_9 
ROOT
ATOM      1  C7  UNK d          25.432  33.816  30.279  0.00  0.00     0.104 C 
ATOM      2  O8  UNK d          26.672  33.760  31.120  0.00  0.00    -0.195 OA
ENDROOT
BRANCH   1   3
ATOM      3  C6  UNK d          24.524  35.007  30.358  0.00  0.00     0.098 C 
BRANCH   3   4
ATOM      4  C4  UNK d          24.850  36.251  29.585  0.00  0.00     0.245 C 
ATOM      5  O5  UNK d          23.940  37.441  29.659  0.00  0.00    -0.211 OA
BRANCH   4   6
ATOM      6  C2  UNK d          26.086  36.304  28.736  0.00  0.00     0.218 C 
ATOM      7  O1  UNK d          27.316  36.996  29.246  0.00  0.00    -0.645 OA
ATOM      8  O3  UNK d          26.092  35.666  27.379  0.00  0.00    -0.645 OA
ENDBRANCH   4   6
ENDBRANCH   3   4
ENDBRANCH   1   3
BRANCH   1   9
ATOM      9  C9  UNK d          25.099  32.679  29.358  0.00  0.00    -0.023 A 
ATOM     10  C10 UNK d          25.810  31.366  29.500  0.00  0.00     0.024 A 
ATOM     11  C11 UNK d          25.477  30.229  28.579  0.00  0.00     0.004 A 
ATOM     12  C12 UNK d          24.432  30.406  27.517  0.00  0.00     0.001 A 
ATOM     13  C13 UNK d          23.721  31.719  27.376  0.00  0.00     0.004 A 
ATOM     14  C14 UNK d          24.054  32.855  28.296  0.00  0.00     0.024 A 
ENDBRANCH   1   9
TORSDOF 4
ENDMDL
MODEL 7
REMARK VINA RESULT:      -1.4      1.802      3.175
REMARK  4 active torsions:
REMARK  status: ('A' for Active; 'I' for Inactive)
REMARK    1  A    between atoms: C2_2  and  C4_4 
REMARK    2  A    between atoms: C4_4  and  C6_6 
REMARK    3  A    between atoms: C6_6  and  C7_7 
REMARK    4  A    between atoms: C7_7  and  C9_9 
ROOT
ATOM      1  C7  UNK d          26.110  32.808  27.378  0.00  0.00     0.104 C 
ATOM      2  O8  UNK d          26.802  31.478  27.375  0.00  0.00    -0.195 OA
ENDROOT
BRANCH   1   3
ATOM      3  C6  UNK d          24.611  32.873  27.381  0.00  0.00     0.098 C 
BRANCH   3   4
ATOM      4  C4  UNK d          23.859  32.799  28.677  0.00  0.00     0.245 C 
ATOM      5  O5  UNK d          23.375  34.056  29.336  0.00  0.00    -0.211 OA
BRANCH   4   6
ATOM      6  C2  UNK d          23.592  31.468  29.313  0.00  0.00     0.218 C 
ATOM      7  O1  UNK d          23.847  30.204  28.546  0.00  0.00    -0.645 OA
ATOM      8  O3  UNK d          23.069  31.399  30.718  0.00  0.00    -0.645 OA
ENDBRANCH   4   6
ENDBRANCH   3   4
ENDBRANCH   1   3
BRANCH   1   9
ATOM      9  C9  UNK d          26.915  34.073  27.379  0.00  0.00    -0.023 A 
ATOM     10  C10 UNK d          26.223  35.404  27.377  0.00  0.00     0.024 A 
ATOM     11  C11 UNK d          27.028  36.669  27.377  0.00  0.00     0.004 A 
ATOM     12  C12 UNK d          28.527  36.604  27.380  0.00  0.00     0.001 A 
ATOM     13  C13 UNK d          29.220  35.273  27.382  0.00  0.00     0.004 A 
ATOM     14  C14 UNK d          28.414  34.008  27.382  0.00  0.00     0.024 A 
ENDBRANCH   1   9
TORSDOF 4
ENDMDL
MODEL 8
REMARK VINA RESULT:      -1.4      3.041      5.286
REMARK  4 active torsions:
REMARK  status: ('A' for Active; 'I' for Inactive)
REMARK    1  A    between atoms: C2_2  and  C4_4 
REMARK    2  A    between atoms: C4_4  and  C6_6 
REMARK    3  A    between atoms: C6_6  and  C7_7 
REMARK    4  A    between atoms: C7_7  and  C9_9 
ROOT
ATOM      1  C7  UNK d          24.607  34.816  29.654  0.00  0.00     0.104 C 
ATOM      2  O8  UNK d          23.262  35.276  30.133  0.00  0.00    -0.195 OA
ENDROOT
BRANCH   1   3
ATOM      3  C6  UNK d          25.803  35.708  29.808  0.00  0.00     0.098 C 
BRANCH   3   4
ATOM      4  C4  UNK d          26.475  36.278  28.594  0.00  0.00     0.245 C 
ATOM      5  O5  UNK d          25.782  37.328  27.776  0.00  0.00    -0.211 OA
BRANCH   4   6
ATOM      6  C2  UNK d          27.840  35.799  28.198  0.00  0.00     0.218 C 
ATOM      7  O1  UNK d          27.988  34.553  27.376  0.00  0.00    -0.645 OA
ATOM      8  O3  UNK d          29.057  36.565  28.624  0.00  0.00    -0.645 OA
ENDBRANCH   4   6
ENDBRANCH   3   4
ENDBRANCH   1   3
BRANCH   1   9
ATOM      9  C9  UNK d          24.756  33.465  29.020  0.00  0.00    -0.023 A 
ATOM     10  C10 UNK d          25.909  32.583  29.398  0.00  0.00     0.024 A 
ATOM     11  C11 UNK d          26.058  31.231  28.764  0.00  0.00     0.004 A 
ATOM     12  C12 UNK d          25.054  30.762  27.753  0.00  0.00     0.001 A 
ATOM     13  C13 UNK d          23.901  31.644  27.376  0.00  0.00     0.004 A 
ATOM     14  C14 UNK d          23.752  32.995  28.009  0.00  0.00     0.024 A 
ENDBRANCH   1   9
TORSDOF 4
ENDMDL
MODEL 9
REMARK VINA RESULT:      -1.4      2.947      5.725
REMARK  4 active torsions:
REMARK  status: ('A' for Active; 'I' for Inactive)
REMARK    1  A    between atoms: C2_2  and  C4_4 
REMARK    2  A    between atoms: C4_4  and  C6_6 
REMARK    3  A    between atoms: C6_6  and  C7_7 
REMARK    4  A    between atoms: C7_7  and  C9_9 
ROOT
ATOM      1  C7  UNK d          26.695  34.331  27.630  0.00  0.00     0.104 C 
ATOM      2  O8  UNK d          28.175  34.411  27.397  0.00  0.00    -0.195 OA
ENDROOT
BRANCH   1   3
ATOM      3  C6  UNK d          25.905  35.583  27.867  0.00  0.00     0.098 C 
BRANCH   3   4
ATOM      4  C4  UNK d          25.730  36.107  29.262  0.00  0.00     0.245 C 
ATOM      5  O5  UNK d          26.901  36.691  29.996  0.00  0.00    -0.211 OA
BRANCH   4   6
ATOM      6  C2  UNK d          24.385  36.047  29.923  0.00  0.00     0.218 C 
ATOM      7  O1  UNK d          23.825  34.728  30.365  0.00  0.00    -0.645 OA
ATOM      8  O3  UNK d          23.600  37.307  30.141  0.00  0.00    -0.645 OA
ENDBRANCH   4   6
ENDBRANCH   3   4
ENDBRANCH   1   3
BRANCH   1   9
ATOM      9  C9  UNK d          26.007  32.998  27.625  0.00  0.00    -0.023 A 
ATOM     10  C10 UNK d          24.529  32.919  27.380  0.00  0.00     0.024 A 
ATOM     11  C11 UNK d          23.840  31.586  27.375  0.00  0.00     0.004 A 
ATOM     12  C12 UNK d          24.629  30.333  27.616  0.00  0.00     0.001 A 
ATOM     13  C13 UNK d          26.107  30.413  27.862  0.00  0.00     0.004 A 
ATOM     14  C14 UNK d          26.795  31.746  27.866  0.00  0.00     0.024 A 
ENDBRANCH   1   9
TORSDOF 4
ENDMDL
