MODEL 1
REMARK VINA RESULT:      -2.3      0.000      0.000
REMARK  4 active torsions:
REMARK  status: ('A' for Active; 'I' for Inactive)
REMARK    1  A    between atoms: C2_2  and  C9_9 
REMARK    2  A    between atoms: C9_9  and  C10_10 
REMARK    3  A    between atoms: C10_10  and  S12_12 
REMARK    4  A    between atoms: S12_12  and  C13_13 
ROOT
ATOM      1  C9  UNK d          24.140  32.961  28.128  0.00  0.00     0.202 C 
ATOM      2  O11 UNK d          24.328  33.338  27.419  0.00  0.00    -0.286 OA
ENDROOT
BRANCH   1   3
ATOM      3  C2  UNK d          24.062  33.401  28.821  0.00  0.00     0.043 A 
ATOM      4  C1  UNK d          24.721  33.534  29.304  0.00  0.00     0.007 A 
ATOM      5  C6  UNK d          24.646  33.972  29.996  0.00  0.00     0.045 A 
ATOM      6  C5  UNK d          23.913  34.282  30.212  0.00  0.00     0.234 A 
ATOM      7  C4  UNK d          23.249  34.151  29.731  0.00  0.00     0.234 A 
ATOM      8  O7  UNK d          23.839  34.721  30.906  0.00  0.00    -0.283 OA
ATOM      9  C3  UNK d          23.327  33.709  29.035  0.00  0.00     0.049 A 
ATOM     10  O8  UNK d          22.514  34.459  29.945  0.00  0.00    -0.283 OA
ENDBRANCH   1   3
BRANCH   1  11
ATOM     11  C10 UNK d          24.028  32.144  28.144  0.00  0.00     0.080 C 
BRANCH  11  12
ATOM     12  S12 UNK d          24.111  31.703  27.452  0.00  0.00    -0.045 SA
BRANCH  12  13
ATOM     13  C13 UNK d          24.057  30.881  27.478  0.00  0.00     0.197 A 
ATOM     14  N14 UNK d          23.316  30.514  27.413  0.00  0.00    -0.221 NA
ATOM     15  C18 UNK d          23.258  29.693  27.439  0.00  0.00     0.088 A 
ATOM     16  C17 UNK d          23.942  29.237  27.529  0.00  0.00     0.082 A 
ATOM     17  C19 UNK d          22.522  29.327  27.375  0.00  0.00     0.021 C 
ATOM     18  C16 UNK d          24.680  29.604  27.593  0.00  0.00     0.283 A 
ATOM     19  N15 UNK d          24.731  30.428  27.567  0.00  0.00    -0.183 NA
ATOM     20  O20 UNK d          25.362  29.150  27.683  0.00  0.00    -0.265 OA
ENDBRANCH  12  13
ENDBRANCH  11  12
ENDBRANCH   1  11
TORSDOF 4
ENDMDL
MODEL 2
REMARK VINA RESULT:      -2.3      2.603      4.775
REMARK  4 active torsions:
REMARK  status: ('A' for Active; 'I' for Inactive)
REMARK    1  A    between atoms: C2_2  and  C9_9 
REMARK    2  A    between atoms: C9_9  and  C10_10 
REMARK    3  A    between atoms: C10_10  and  S12_12 
REMARK    4  A    between atoms: S12_12  and  C13_13 
ROOT
ATOM      1  C9  UNK d          23.999  33.433  28.899  0.00  0.00     0.202 C 
ATOM      2  O11 UNK d          23.324  33.776  29.228  0.00  0.00    -0.286 OA
ENDROOT
BRANCH   1   3
ATOM      3  C2  UNK d          23.955  32.687  28.551  0.00  0.00     0.043 A 
ATOM      4  C1  UNK d          23.926  32.614  27.727  0.00  0.00     0.007 A 
ATOM      5  C6  UNK d          23.883  31.871  27.379  0.00  0.00     0.045 A 
ATOM      6  C5  UNK d          23.868  31.193  27.849  0.00  0.00     0.234 A 
ATOM      7  C4  UNK d          23.897  31.262  28.676  0.00  0.00     0.234 A 
ATOM      8  O7  UNK d          23.824  30.449  27.499  0.00  0.00    -0.283 OA
ATOM      9  C3  UNK d          23.940  32.011  29.025  0.00  0.00     0.049 A 
ATOM     10  O8  UNK d          23.882  30.586  29.149  0.00  0.00    -0.283 OA
ENDBRANCH   1   3
BRANCH   1  11
ATOM     11  C10 UNK d          24.717  33.838  28.917  0.00  0.00     0.080 C 
BRANCH  11  12
ATOM     12  S12 UNK d          24.777  34.556  29.321  0.00  0.00    -0.045 SA
BRANCH  12  13
ATOM     13  C13 UNK d          25.482  34.983  29.301  0.00  0.00     0.197 A 
ATOM     14  N14 UNK d          25.563  35.621  28.778  0.00  0.00    -0.221 NA
ATOM     15  C18 UNK d          26.266  36.050  28.755  0.00  0.00     0.088 A 
ATOM     16  C17 UNK d          26.889  35.840  29.257  0.00  0.00     0.082 A 
ATOM     17  C19 UNK d          26.348  36.685  28.235  0.00  0.00     0.021 C 
ATOM     18  C16 UNK d          26.806  35.204  29.778  0.00  0.00     0.283 A 
ATOM     19  N15 UNK d          26.099  34.778  29.795  0.00  0.00    -0.183 NA
ATOM     20  O20 UNK d          27.428  34.995  30.278  0.00  0.00    -0.265 OA
ENDBRANCH  12  13
ENDBRANCH  11  12
ENDBRANCH   1  11
TORSDOF 4
ENDMDL
MODEL 3
REMARK VINA RESULT:      -2.2      2.524      3.807
REMARK  4 active torsions:
REMARK  status: ('A' for Active; 'I' for Inactive)
REMARK    1  A    between atoms: C2_2  and  C9_9 
REMARK    2  A    between atoms: C9_9  and  C10_10 
REMARK    3  A    between atoms: C10_10  and  S12_12 
REMARK    4  A    between atoms: S12_12  and  C13_13 
ROOT
ATOM      1  C9  UNK d          24.074  33.089  28.253  0.00  0.00     0.202 C 
ATOM      2  O11 UNK d          23.736  32.785  27.564  0.00  0.00    -0.286 OA
ENDROOT
BRANCH   1   3
ATOM      3  C2  UNK d          23.683  33.009  28.974  0.00  0.00     0.043 A 
ATOM      4  C1  UNK d          23.235  33.637  29.276  0.00  0.00     0.007 A 
ATOM      5  C6  UNK d          22.845  33.558  29.995  0.00  0.00     0.045 A 
ATOM      6  C5  UNK d          22.897  32.854  30.420  0.00  0.00     0.234 A 
ATOM      7  C4  UNK d          23.345  32.222  30.122  0.00  0.00     0.234 A 
ATOM      8  O7  UNK d          22.505  32.777  31.141  0.00  0.00    -0.283 OA
ATOM      9  C3  UNK d          23.737  32.302  29.397  0.00  0.00     0.049 A 
ATOM     10  O8  UNK d          23.399  31.516  30.545  0.00  0.00    -0.283 OA
ENDBRANCH   1   3
BRANCH   1  11
ATOM     11  C10 UNK d          24.803  33.473  28.220  0.00  0.00     0.080 C 
BRANCH  11  12
ATOM     12  S12 UNK d          25.168  33.605  27.491  0.00  0.00    -0.045 SA
BRANCH  12  13
ATOM     13  C13 UNK d          25.888  34.006  27.457  0.00  0.00     0.197 A 
ATOM     14  N14 UNK d          25.898  34.834  27.445  0.00  0.00    -0.221 NA
ATOM     15  C18 UNK d          26.615  35.238  27.411  0.00  0.00     0.088 A 
ATOM     16  C17 UNK d          27.323  34.812  27.387  0.00  0.00     0.082 A 
ATOM     17  C19 UNK d          26.626  36.063  27.400  0.00  0.00     0.021 C 
ATOM     18  C16 UNK d          27.311  33.986  27.399  0.00  0.00     0.283 A 
ATOM     19  N15 UNK d          26.589  33.587  27.433  0.00  0.00    -0.183 NA
ATOM     20  O20 UNK d          28.018  33.561  27.375  0.00  0.00    -0.265 OA
ENDBRANCH  12  13
ENDBRANCH  11  12
ENDBRANCH   1  11
TORSDOF 4
ENDMDL
MODEL 4
REMARK VINA RESULT:      -2.1      3.083      5.136
REMARK  4 active torsions:
REMARK  status: ('A' for Active; 'I' for Inactive)
REMARK    1  A    between atoms: C2_2  and  C9_9 
REMARK    2  A    between atoms: C9_9  and  C10_10 
REMARK    3  A    between atoms: C10_10  and  S12_12 
REMARK    4  A    between atoms: S12_12  and  C13_13 
ROOT
ATOM      1  C9  UNK d          25.130  33.610  28.878  0.00  0.00     0.202 C 
ATOM      2  O11 UNK d          25.103  33.677  29.700  0.00  0.00    -0.286 OA
ENDROOT
BRANCH   1   3
ATOM      3  C2  UNK d          24.761  32.975  28.503  0.00  0.00     0.043 A 
ATOM      4  C1  UNK d          24.017  33.074  28.153  0.00  0.00     0.007 A 
ATOM      5  C6  UNK d          23.648  32.442  27.779  0.00  0.00     0.045 A 
ATOM      6  C5  UNK d          24.017  31.705  27.751  0.00  0.00     0.234 A 
ATOM      7  C4  UNK d          24.762  31.601  28.100  0.00  0.00     0.234 A 
ATOM      8  O7  UNK d          23.645  31.073  27.375  0.00  0.00    -0.283 OA
ATOM      9  C3  UNK d          25.133  32.239  28.476  0.00  0.00     0.049 A 
ATOM     10  O8  UNK d          25.134  30.865  28.073  0.00  0.00    -0.283 OA
ENDBRANCH   1   3
BRANCH   1  11
ATOM     11  C10 UNK d          25.526  34.179  28.431  0.00  0.00     0.080 C 
BRANCH  11  12
ATOM     12  S12 UNK d          25.885  34.821  28.805  0.00  0.00    -0.045 SA
BRANCH  12  13
ATOM     13  C13 UNK d          26.269  35.397  28.357  0.00  0.00     0.197 A 
ATOM     14  N14 UNK d          27.042  35.265  28.090  0.00  0.00    -0.221 NA
ATOM     15  C18 UNK d          27.429  35.838  27.642  0.00  0.00     0.088 A 
ATOM     16  C17 UNK d          27.041  36.545  27.461  0.00  0.00     0.082 A 
ATOM     17  C19 UNK d          28.199  35.707  27.377  0.00  0.00     0.021 C 
ATOM     18  C16 UNK d          26.270  36.675  27.727  0.00  0.00     0.283 A 
ATOM     19  N15 UNK d          25.888  36.097  28.175  0.00  0.00    -0.183 NA
ATOM     20  O20 UNK d          25.883  37.381  27.546  0.00  0.00    -0.265 OA
ENDBRANCH  12  13
ENDBRANCH  11  12
ENDBRANCH   1  11
TORSDOF 4
ENDMDL
MODEL 5
REMARK VINA RESULT:      -2.1      1.529      2.029
REMARK  4 active torsions:
REMARK  status: ('A' for Active; 'I' for Inactive)
REMARK    1  A    between atoms: C2_2  and  C9_9 
REMARK    2  A    between atoms: C9_9  and  C10_10 
REMARK    3  A    between atoms: C10_10  and  S12_12 
REMARK    4  A    between atoms: S12_12  and  C13_13 
ROOT
ATOM      1  C9  UNK d          24.268  32.870  28.051  0.00  0.00     0.202 C 
ATOM      2  O11 UNK d          23.466  32.995  27.901  0.00  0.00    -0.286 OA
ENDROOT
BRANCH   1   3
ATOM      3  C2  UNK d          24.793  33.506  28.051  0.00  0.00     0.043 A 
ATOM      4  C1  UNK d          25.244  33.671  27.377  0.00  0.00     0.007 A 
ATOM      5  C6  UNK d          25.767  34.305  27.375  0.00  0.00     0.045 A 
ATOM      6  C5  UNK d          25.846  34.780  28.045  0.00  0.00     0.234 A 
ATOM      7  C4  UNK d          25.395  34.617  28.723  0.00  0.00     0.234 A 
ATOM      8  O7  UNK d          26.371  35.415  28.041  0.00  0.00    -0.283 OA
ATOM      9  C3  UNK d          24.868  33.979  28.724  0.00  0.00     0.049 A 
ATOM     10  O8  UNK d          25.472  35.091  29.395  0.00  0.00    -0.283 OA
ENDBRANCH   1   3
BRANCH   1  11
ATOM     11  C10 UNK d          24.545  32.108  28.202  0.00  0.00     0.080 C 
BRANCH  11  12
ATOM     12  S12 UNK d          24.015  31.476  28.237  0.00  0.00    -0.045 SA
BRANCH  12  13
ATOM     13  C13 UNK d          24.288  30.718  28.414  0.00  0.00     0.197 A 
ATOM     14  N14 UNK d          24.285  30.450  29.198  0.00  0.00    -0.221 NA
ATOM     15  C18 UNK d          24.557  29.694  29.378  0.00  0.00     0.088 A 
ATOM     16  C17 UNK d          24.833  29.204  28.772  0.00  0.00     0.082 A 
ATOM     17  C19 UNK d          24.554  29.427  30.159  0.00  0.00     0.021 C 
ATOM     18  C16 UNK d          24.836  29.472  27.990  0.00  0.00     0.283 A 
ATOM     19  N15 UNK d          24.562  30.231  27.817  0.00  0.00    -0.183 NA
ATOM     20  O20 UNK d          25.111  28.983  27.386  0.00  0.00    -0.265 OA
ENDBRANCH  12  13
ENDBRANCH  11  12
ENDBRANCH   1  11
TORSDOF 4
ENDMDL
MODEL 6
REMARK VINA RESULT:      -2.1      2.585      5.022
REMARK  4 active torsions:
REMARK  status: ('A' for Active; 'I' for Inactive)
REMARK    1  A    between atoms: C2_2  and  C9_9 
REMARK    2  A    between atoms: C9_9  and  C10_10 
REMARK    3  A    between atoms: C10_10  and  S12_12 
REMARK    4  A    between atoms: S12_12  and  C13_13 
ROOT
ATOM      1  C9  UNK d          24.611  33.605  29.100  0.00  0.00     0.202 C 
ATOM      2  O11 UNK d          25.413  33.794  29.128  0.00  0.00    -0.286 OA
ENDROOT
BRANCH   1   3
ATOM      3  C2  UNK d          24.356  32.948  28.671  0.00  0.00     0.043 A 
ATOM      4  C1  UNK d          24.177  33.021  27.866  0.00  0.00     0.007 A 
ATOM      5  C6  UNK d          23.923  32.367  27.438  0.00  0.00     0.045 A 
ATOM      6  C5  UNK d          23.846  31.634  27.807  0.00  0.00     0.234 A 
ATOM      7  C4  UNK d          24.025  31.556  28.614  0.00  0.00     0.234 A 
ATOM      8  O7  UNK d          23.592  30.980  27.376  0.00  0.00    -0.283 OA
ATOM      9  C3  UNK d          24.280  32.215  29.045  0.00  0.00     0.049 A 
ATOM     10  O8  UNK d          23.948  30.824  28.986  0.00  0.00    -0.283 OA
ENDBRANCH   1   3
BRANCH   1  11
ATOM     11  C10 UNK d          24.062  34.072  29.501  0.00  0.00     0.080 C 
BRANCH  11  12
ATOM     12  S12 UNK d          24.321  34.696  29.976  0.00  0.00    -0.045 SA
BRANCH  12  13
ATOM     13  C13 UNK d          23.773  35.156  30.386  0.00  0.00     0.197 A 
ATOM     14  N14 UNK d          23.528  34.928  31.144  0.00  0.00    -0.221 NA
ATOM     15  C18 UNK d          22.981  35.385  31.557  0.00  0.00     0.088 A 
ATOM     16  C17 UNK d          22.679  36.073  31.211  0.00  0.00     0.082 A 
ATOM     17  C19 UNK d          22.737  35.159  32.311  0.00  0.00     0.021 C 
ATOM     18  C16 UNK d          22.924  36.299  30.455  0.00  0.00     0.283 A 
ATOM     19  N15 UNK d          23.473  35.836  30.046  0.00  0.00    -0.183 NA
ATOM     20  O20 UNK d          22.623  36.985  30.109  0.00  0.00    -0.265 OA
ENDBRANCH  12  13
ENDBRANCH  11  12
ENDBRANCH   1  11
TORSDOF 4
ENDMDL
MODEL 7
REMARK VINA RESULT:      -2.0      1.744      4.505
REMARK  4 active torsions:
REMARK  status: ('A' for Active; 'I' for Inactive)
REMARK    1  A    between atoms: C2_2  and  C9_9 
REMARK    2  A    between atoms: C9_9  and  C10_10 
REMARK    3  A    between atoms: C10_10  and  S12_12 
REMARK    4  A    between atoms: S12_12  and  C13_13 
ROOT
ATOM      1  C9  UNK d          24.000  31.364  27.807  0.00  0.00     0.202 C 
ATOM      2  O11 UNK d          23.310  31.498  27.375  0.00  0.00    -0.286 OA
ENDROOT
BRANCH   1   3
ATOM      3  C2  UNK d          24.238  30.593  27.976  0.00  0.00     0.043 A 
ATOM      4  C1  UNK d          24.801  30.217  27.498  0.00  0.00     0.007 A 
ATOM      5  C6  UNK d          25.039  29.449  27.666  0.00  0.00     0.045 A 
ATOM      6  C5  UNK d          24.719  29.047  28.311  0.00  0.00     0.234 A 
ATOM      7  C4  UNK d          24.155  29.420  28.793  0.00  0.00     0.234 A 
ATOM      8  O7  UNK d          24.959  28.276  28.477  0.00  0.00    -0.283 OA
ATOM      9  C3  UNK d          23.916  30.194  28.623  0.00  0.00     0.049 A 
ATOM     10  O8  UNK d          23.833  29.020  29.439  0.00  0.00    -0.283 OA
ENDBRANCH   1   3
BRANCH   1  11
ATOM     11  C10 UNK d          24.453  32.002  28.069  0.00  0.00     0.080 C 
BRANCH  11  12
ATOM     12  S12 UNK d          24.235  32.772  27.870  0.00  0.00    -0.045 SA
BRANCH  12  13
ATOM     13  C13 UNK d          24.690  33.410  28.128  0.00  0.00     0.197 A 
ATOM     14  N14 UNK d          25.260  33.740  27.624  0.00  0.00    -0.221 NA
ATOM     15  C18 UNK d          25.716  34.377  27.878  0.00  0.00     0.088 A 
ATOM     16  C17 UNK d          25.604  34.684  28.637  0.00  0.00     0.082 A 
ATOM     17  C19 UNK d          26.283  34.706  27.377  0.00  0.00     0.021 C 
ATOM     18  C16 UNK d          25.035  34.353  29.138  0.00  0.00     0.283 A 
ATOM     19  N15 UNK d          24.581  33.715  28.878  0.00  0.00    -0.183 NA
ATOM     20  O20 UNK d          24.923  34.659  29.896  0.00  0.00    -0.265 OA
ENDBRANCH  12  13
ENDBRANCH  11  12
ENDBRANCH   1  11
TORSDOF 4
ENDMDL
MODEL 8
REMARK VINA RESULT:      -2.0      2.554      3.201
REMARK  4 active torsions:
REMARK  status: ('A' for Active; 'I' for Inactive)
REMARK    1  A    between atoms: C2_2  and  C9_9 
REMARK    2  A    between atoms: C9_9  and  C10_10 
REMARK    3  A    between atoms: C10_10  and  S12_12 
REMARK    4  A    between atoms: S12_12  and  C13_13 
ROOT
ATOM      1  C9  UNK d          26.193  34.351  28.742  0.00  0.00     0.202 C 
ATOM      2  O11 UNK d          26.884  34.077  29.098  0.00  0.00    -0.286 OA
ENDROOT
BRANCH   1   3
ATOM      3  C2  UNK d          26.155  35.122  28.452  0.00  0.00     0.043 A 
ATOM      4  C1  UNK d          26.359  35.281  27.665  0.00  0.00     0.007 A 
ATOM      5  C6  UNK d          26.322  36.049  27.375  0.00  0.00     0.045 A 
ATOM      6  C5  UNK d          26.081  36.666  27.866  0.00  0.00     0.234 A 
ATOM      7  C4  UNK d          25.876  36.512  28.655  0.00  0.00     0.234 A 
ATOM      8  O7  UNK d          26.045  37.436  27.573  0.00  0.00    -0.283 OA
ATOM      9  C3  UNK d          25.913  35.738  28.946  0.00  0.00     0.049 A 
ATOM     10  O8  UNK d          25.634  37.128  29.149  0.00  0.00    -0.283 OA
ENDBRANCH   1   3
BRANCH   1  11
ATOM     11  C10 UNK d          25.538  33.854  28.675  0.00  0.00     0.080 C 
BRANCH  11  12
ATOM     12  S12 UNK d          25.595  33.064  28.907  0.00  0.00    -0.045 SA
BRANCH  12  13
ATOM     13  C13 UNK d          24.933  32.574  28.869  0.00  0.00     0.197 A 
ATOM     14  N14 UNK d          24.782  32.137  28.181  0.00  0.00    -0.221 NA
ATOM     15  C18 UNK d          24.122  31.646  28.139  0.00  0.00     0.088 A 
ATOM     16  C17 UNK d          23.610  31.593  28.787  0.00  0.00     0.082 A 
ATOM     17  C19 UNK d          23.971  31.211  27.455  0.00  0.00     0.021 C 
ATOM     18  C16 UNK d          23.762  32.030  29.472  0.00  0.00     0.283 A 
ATOM     19  N15 UNK d          24.426  32.520  29.507  0.00  0.00    -0.183 NA
ATOM     20  O20 UNK d          23.251  31.977  30.118  0.00  0.00    -0.265 OA
ENDBRANCH  12  13
ENDBRANCH  11  12
ENDBRANCH   1  11
TORSDOF 4
ENDMDL
