MODEL 1
REMARK VINA RESULT:      -1.5      0.000      0.000
REMARK  7 active torsions:
REMARK  status: ('A' for Active; 'I' for Inactive)
REMARK    1  A    between atoms: C2_2  and  C4_4 
REMARK    2  A    between atoms: C4_4  and  C6_6 
REMARK    3  A    between atoms: C6_6  and  C7_7 
REMARK    4  A    between atoms: C7_7  and  C9_9 
REMARK    5  A    between atoms: C13_13  and  O14_14 
REMARK    6  A    between atoms: O14_14  and  C15_15 
REMARK    7  A    between atoms: C15_15  and  C16_16 
ROOT
ATOM      1  C9  UNK d          26.918  32.736  27.575  0.00  0.00    -0.021 A 
ATOM      2  C10 UNK d          28.410  32.809  27.440  0.00  0.00     0.024 A 
ATOM      3  C11 UNK d          29.093  34.143  27.376  0.00  0.00     0.007 A 
ATOM      4  C12 UNK d          28.284  35.404  27.447  0.00  0.00     0.030 A 
ATOM      5  C13 UNK d          26.792  35.330  27.581  0.00  0.00     0.119 A 
ATOM      6  C22 UNK d          26.109  33.996  27.646  0.00  0.00     0.053 A 
ENDROOT
BRANCH   1   7
ATOM      7  C7  UNK d          26.235  31.401  27.639  0.00  0.00     0.104 C 
ATOM      8  O8  UNK d          27.026  30.169  27.966  0.00  0.00    -0.195 OA
BRANCH   7   9
ATOM      9  C6  UNK d          24.762  31.300  27.376  0.00  0.00     0.098 C 
BRANCH   9  10
ATOM     10  C4  UNK d          23.811  31.075  28.514  0.00  0.00     0.245 C 
ATOM     11  O5  UNK d          22.936  29.856  28.531  0.00  0.00    -0.211 OA
BRANCH  10  12
ATOM     12  C2  UNK d          23.734  32.069  29.634  0.00  0.00     0.218 C 
ATOM     13  O1  UNK d          23.018  33.372  29.434  0.00  0.00    -0.645 OA
ATOM     14  O3  UNK d          24.373  31.761  30.956  0.00  0.00    -0.645 OA
ENDBRANCH  10  12
ENDBRANCH   9  10
ENDBRANCH   7   9
ENDBRANCH   1   7
BRANCH   5  15
ATOM     15  O14 UNK d          25.982  36.591  27.652  0.00  0.00    -0.356 OA
BRANCH  15  16
ATOM     16  C15 UNK d          25.810  37.300  28.963  0.00  0.00     0.142 C 
BRANCH  16  17
ATOM     17  C16 UNK d          24.944  36.701  30.031  0.00  0.00     0.030 A 
ATOM     18  C17 UNK d          23.490  37.061  30.106  0.00  0.00     0.003 A 
ATOM     19  C18 UNK d          22.623  36.462  31.175  0.00  0.00     0.000 A 
ATOM     20  C19 UNK d          23.211  35.503  32.167  0.00  0.00     0.000 A 
ATOM     21  C20 UNK d          24.666  35.143  32.092  0.00  0.00     0.000 A 
ATOM     22  C21 UNK d          25.532  35.742  31.024  0.00  0.00     0.003 A 
ENDBRANCH  16  17
ENDBRANCH  15  16
ENDBRANCH   5  15
TORSDOF 7
ENDMDL
MODEL 2
REMARK VINA RESULT:      -1.3      2.407      5.308
REMARK  7 active torsions:
REMARK  status: ('A' for Active; 'I' for Inactive)
REMARK    1  A    between atoms: C2_2  and  C4_4 
REMARK    2  A    between atoms: C4_4  and  C6_6 
REMARK    3  A    between atoms: C6_6  and  C7_7 
REMARK    4  A    between atoms: C7_7  and  C9_9 
REMARK    5  A    between atoms: C13_13  and  O14_14 
REMARK    6  A    between atoms: O14_14  and  C15_15 
REMARK    7  A    between atoms: C15_15  and  C16_16 
ROOT
ATOM      1  C9  UNK d          28.565  31.466  28.860  0.00  0.00    -0.021 A 
ATOM      2  C10 UNK d          28.745  30.949  30.257  0.00  0.00     0.024 A 
ATOM      3  C11 UNK d          27.850  29.864  30.777  0.00  0.00     0.007 A 
ATOM      4  C12 UNK d          26.774  29.295  29.900  0.00  0.00     0.030 A 
ATOM      5  C13 UNK d          26.593  29.812  28.503  0.00  0.00     0.119 A 
ATOM      6  C22 UNK d          27.489  30.897  27.984  0.00  0.00     0.053 A 
ENDROOT
BRANCH   1   7
ATOM      7  C7  UNK d          29.460  32.552  28.341  0.00  0.00     0.104 C 
ATOM      8  O8  UNK d          30.890  32.621  28.786  0.00  0.00    -0.195 OA
BRANCH   7   9
ATOM      9  C6  UNK d          28.925  33.567  27.375  0.00  0.00     0.098 C 
BRANCH   9  10
ATOM     10  C4  UNK d          28.429  34.891  27.877  0.00  0.00     0.245 C 
ATOM     11  O5  UNK d          29.300  36.107  27.773  0.00  0.00    -0.211 OA
BRANCH  10  12
ATOM     12  C2  UNK d          27.061  34.998  28.484  0.00  0.00     0.218 C 
ATOM     13  O1  UNK d          25.971  35.724  27.753  0.00  0.00    -0.645 OA
ATOM     14  O3  UNK d          26.783  34.378  29.821  0.00  0.00    -0.645 OA
ENDBRANCH  10  12
ENDBRANCH   9  10
ENDBRANCH   7   9
ENDBRANCH   1   7
BRANCH   5  15
ATOM     15  O14 UNK d          25.517  29.243  27.627  0.00  0.00    -0.356 OA
BRANCH  15  16
ATOM     16  C15 UNK d          24.262  30.025  27.377  0.00  0.00     0.142 C 
BRANCH  16  17
ATOM     17  C16 UNK d          23.808  31.051  28.372  0.00  0.00     0.030 A 
ATOM     18  C17 UNK d          23.256  30.618  29.698  0.00  0.00     0.003 A 
ATOM     19  C18 UNK d          22.801  31.645  30.693  0.00  0.00     0.000 A 
ATOM     20  C19 UNK d          22.899  33.104  30.362  0.00  0.00     0.000 A 
ATOM     21  C20 UNK d          23.451  33.538  29.036  0.00  0.00     0.000 A 
ATOM     22  C21 UNK d          23.905  32.511  28.041  0.00  0.00     0.003 A 
ENDBRANCH  16  17
ENDBRANCH  15  16
ENDBRANCH   5  15
TORSDOF 7
ENDMDL
MODEL 3
REMARK VINA RESULT:      -1.3      2.149      4.647
REMARK  7 active torsions:
REMARK  status: ('A' for Active; 'I' for Inactive)
REMARK    1  A    between atoms: C2_2  and  C4_4 
REMARK    2  A    between atoms: C4_4  and  C6_6 
REMARK    3  A    between atoms: C6_6  and  C7_7 
REMARK    4  A    between atoms: C7_7  and  C9_9 
REMARK    5  A    between atoms: C13_13  and  O14_14 
REMARK    6  A    between atoms: O14_14  and  C15_15 
REMARK    7  A    between atoms: C15_15  and  C16_16 
ROOT
ATOM      1  C9  UNK d          25.299  30.663  29.188  0.00  0.00    -0.021 A 
ATOM      2  C10 UNK d          24.684  30.696  27.820  0.00  0.00     0.024 A 
ATOM      3  C11 UNK d          23.909  31.900  27.376  0.00  0.00     0.007 A 
ATOM      4  C12 UNK d          23.749  33.072  28.298  0.00  0.00     0.030 A 
ATOM      5  C13 UNK d          24.365  33.039  29.666  0.00  0.00     0.119 A 
ATOM      6  C22 UNK d          25.139  31.834  30.111  0.00  0.00     0.053 A 
ENDROOT
BRANCH   1   7
ATOM      7  C7  UNK d          26.074  29.458  29.633  0.00  0.00     0.104 C 
ATOM      8  O8  UNK d          25.449  28.468  30.571  0.00  0.00    -0.195 OA
BRANCH   7   9
ATOM      9  C6  UNK d          27.474  29.243  29.140  0.00  0.00     0.098 C 
BRANCH   9  10
ATOM     10  C4  UNK d          28.563  30.196  29.534  0.00  0.00     0.245 C 
ATOM     11  O5  UNK d          29.177  30.110  30.900  0.00  0.00    -0.211 OA
BRANCH  10  12
ATOM     12  C2  UNK d          29.037  31.236  28.562  0.00  0.00     0.218 C 
ATOM     13  O1  UNK d          28.187  31.604  27.383  0.00  0.00    -0.645 OA
ATOM     14  O3  UNK d          30.363  31.907  28.770  0.00  0.00    -0.645 OA
ENDBRANCH  10  12
ENDBRANCH   9  10
ENDBRANCH   7   9
ENDBRANCH   1   7
BRANCH   5  15
ATOM     15  O14 UNK d          24.205  34.211  30.588  0.00  0.00    -0.356 OA
BRANCH  15  16
ATOM     16  C15 UNK d          25.336  35.178  30.776  0.00  0.00     0.142 C 
BRANCH  16  17
ATOM     17  C16 UNK d          26.281  35.454  29.644  0.00  0.00     0.030 A 
ATOM     18  C17 UNK d          25.924  36.470  28.600  0.00  0.00     0.003 A 
ATOM     19  C18 UNK d          26.869  36.747  27.468  0.00  0.00     0.000 A 
ATOM     20  C19 UNK d          28.172  36.008  27.381  0.00  0.00     0.000 A 
ATOM     21  C20 UNK d          28.529  34.993  28.426  0.00  0.00     0.000 A 
ATOM     22  C21 UNK d          27.584  34.716  29.557  0.00  0.00     0.003 A 
ENDBRANCH  16  17
ENDBRANCH  15  16
ENDBRANCH   5  15
TORSDOF 7
ENDMDL
MODEL 4
REMARK VINA RESULT:      -1.3      2.450      3.458
REMARK  7 active torsions:
REMARK  status: ('A' for Active; 'I' for Inactive)
REMARK    1  A    between atoms: C2_2  and  C4_4 
REMARK    2  A    between atoms: C4_4  and  C6_6 
REMARK    3  A    between atoms: C6_6  and  C7_7 
REMARK    4  A    between atoms: C7_7  and  C9_9 
REMARK    5  A    between atoms: C13_13  and  O14_14 
REMARK    6  A    between atoms: O14_14  and  C15_15 
REMARK    7  A    between atoms: C15_15  and  C16_16 
ROOT
ATOM      1  C9  UNK d          28.389  30.694  29.132  0.00  0.00    -0.021 A 
ATOM      2  C10 UNK d          28.525  30.878  30.615  0.00  0.00     0.024 A 
ATOM      3  C11 UNK d          28.637  32.257  31.192  0.00  0.00     0.007 A 
ATOM      4  C12 UNK d          28.613  33.453  30.287  0.00  0.00     0.030 A 
ATOM      5  C13 UNK d          28.477  33.270  28.805  0.00  0.00     0.119 A 
ATOM      6  C22 UNK d          28.364  31.890  28.227  0.00  0.00     0.053 A 
ENDROOT
BRANCH   1   7
ATOM      7  C7  UNK d          28.276  29.314  28.555  0.00  0.00     0.104 C 
ATOM      8  O8  UNK d          29.175  28.219  29.048  0.00  0.00    -0.195 OA
BRANCH   7   9
ATOM      9  C6  UNK d          27.265  29.029  27.484  0.00  0.00     0.098 C 
BRANCH   9  10
ATOM     10  C4  UNK d          25.944  28.417  27.844  0.00  0.00     0.245 C 
ATOM     11  O5  UNK d          25.760  26.931  27.766  0.00  0.00    -0.211 OA
BRANCH  10  12
ATOM     12  C2  UNK d          24.807  29.292  28.282  0.00  0.00     0.218 C 
ATOM     13  O1  UNK d          23.569  29.391  27.439  0.00  0.00    -0.645 OA
ATOM     14  O3  UNK d          24.906  30.067  29.561  0.00  0.00    -0.645 OA
ENDBRANCH  10  12
ENDBRANCH   9  10
ENDBRANCH   7   9
ENDBRANCH   1   7
BRANCH   5  15
ATOM     15  O14 UNK d          28.452  34.466  27.900  0.00  0.00    -0.356 OA
BRANCH  15  16
ATOM     16  C15 UNK d          27.146  34.983  27.376  0.00  0.00     0.142 C 
BRANCH  16  17
ATOM     17  C16 UNK d          25.858  34.550  28.011  0.00  0.00     0.030 A 
ATOM     18  C17 UNK d          25.373  35.227  29.259  0.00  0.00     0.003 A 
ATOM     19  C18 UNK d          24.086  34.794  29.895  0.00  0.00     0.000 A 
ATOM     20  C19 UNK d          23.283  33.684  29.283  0.00  0.00     0.000 A 
ATOM     21  C20 UNK d          23.768  33.007  28.035  0.00  0.00     0.000 A 
ATOM     22  C21 UNK d          25.055  33.440  27.400  0.00  0.00     0.003 A 
ENDBRANCH  16  17
ENDBRANCH  15  16
ENDBRANCH   5  15
TORSDOF 7
ENDMDL
MODEL 5
REMARK VINA RESULT:      -1.3      2.858      6.650
REMARK  7 active torsions:
REMARK  status: ('A' for Active; 'I' for Inactive)
REMARK    1  A    between atoms: C2_2  and  C4_4 
REMARK    2  A    between atoms: C4_4  and  C6_6 
REMARK    3  A    between atoms: C6_6  and  C7_7 
REMARK    4  A    between atoms: C7_7  and  C9_9 
REMARK    5  A    between atoms: C13_13  and  O14_14 
REMARK    6  A    between atoms: O14_14  and  C15_15 
REMARK    7  A    between atoms: C15_15  and  C16_16 
ROOT
ATOM      1  C9  UNK d          23.936  32.218  28.668  0.00  0.00    -0.021 A 
ATOM      2  C10 UNK d          23.738  31.482  27.376  0.00  0.00     0.024 A 
ATOM      3  C11 UNK d          23.250  30.063  27.388  0.00  0.00     0.007 A 
ATOM      4  C12 UNK d          22.962  29.380  28.692  0.00  0.00     0.030 A 
ATOM      5  C13 UNK d          23.160  30.116  29.984  0.00  0.00     0.119 A 
ATOM      6  C22 UNK d          23.647  31.535  29.972  0.00  0.00     0.053 A 
ENDROOT
BRANCH   1   7
ATOM      7  C7  UNK d          24.423  33.636  28.656  0.00  0.00     0.104 C 
ATOM      8  O8  UNK d          23.803  34.650  29.571  0.00  0.00    -0.195 OA
BRANCH   7   9
ATOM      9  C6  UNK d          25.531  34.041  27.729  0.00  0.00     0.098 C 
BRANCH   9  10
ATOM     10  C4  UNK d          26.944  34.095  28.227  0.00  0.00     0.245 C 
ATOM     11  O5  UNK d          27.722  35.375  28.141  0.00  0.00    -0.211 OA
BRANCH  10  12
ATOM     12  C2  UNK d          27.581  32.869  28.812  0.00  0.00     0.218 C 
ATOM     13  O1  UNK d          27.362  31.531  28.169  0.00  0.00    -0.645 OA
ATOM     14  O3  UNK d          28.435  32.980  30.040  0.00  0.00    -0.645 OA
ENDBRANCH  10  12
ENDBRANCH   9  10
ENDBRANCH   7   9
ENDBRANCH   1   7
BRANCH   5  15
ATOM     15  O14 UNK d          22.871  29.433  31.288  0.00  0.00    -0.356 OA
BRANCH  15  16
ATOM     16  C15 UNK d          23.990  28.818  32.076  0.00  0.00     0.142 C 
BRANCH  16  17
ATOM     17  C16 UNK d          25.359  28.706  31.474  0.00  0.00     0.030 A 
ATOM     18  C17 UNK d          26.393  29.753  31.764  0.00  0.00     0.003 A 
ATOM     19  C18 UNK d          27.763  29.641  31.161  0.00  0.00     0.000 A 
ATOM     20  C19 UNK d          28.097  28.483  30.269  0.00  0.00     0.000 A 
ATOM     21  C20 UNK d          27.062  27.436  29.979  0.00  0.00     0.000 A 
ATOM     22  C21 UNK d          25.693  27.548  30.581  0.00  0.00     0.003 A 
ENDBRANCH  16  17
ENDBRANCH  15  16
ENDBRANCH   5  15
TORSDOF 7
ENDMDL
MODEL 6
REMARK VINA RESULT:      -1.3      2.779      5.216
REMARK  7 active torsions:
REMARK  status: ('A' for Active; 'I' for Inactive)
REMARK    1  A    between atoms: C2_2  and  C4_4 
REMARK    2  A    between atoms: C4_4  and  C6_6 
REMARK    3  A    between atoms: C6_6  and  C7_7 
REMARK    4  A    between atoms: C7_7  and  C9_9 
REMARK    5  A    between atoms: C13_13  and  O14_14 
REMARK    6  A    between atoms: O14_14  and  C15_15 
REMARK    7  A    between atoms: C15_15  and  C16_16 
ROOT
ATOM      1  C9  UNK d          27.926  31.004  30.226  0.00  0.00    -0.021 A 
ATOM      2  C10 UNK d          27.277  30.633  31.527  0.00  0.00     0.024 A 
ATOM      3  C11 UNK d          25.814  30.306  31.569  0.00  0.00     0.007 A 
ATOM      4  C12 UNK d          24.999  30.349  30.310  0.00  0.00     0.030 A 
ATOM      5  C13 UNK d          25.648  30.720  29.009  0.00  0.00     0.119 A 
ATOM      6  C22 UNK d          27.111  31.048  28.967  0.00  0.00     0.053 A 
ENDROOT
BRANCH   1   7
ATOM      7  C7  UNK d          29.389  31.331  30.184  0.00  0.00     0.104 C 
ATOM      8  O8  UNK d          30.378  30.291  29.746  0.00  0.00    -0.195 OA
BRANCH   7   9
ATOM      9  C6  UNK d          29.864  32.698  30.579  0.00  0.00     0.098 C 
BRANCH   9  10
ATOM     10  C4  UNK d          29.110  33.914  30.126  0.00  0.00     0.245 C 
ATOM     11  O5  UNK d          28.075  34.530  31.019  0.00  0.00    -0.211 OA
BRANCH  10  12
ATOM     12  C2  UNK d          29.392  34.512  28.780  0.00  0.00     0.218 C 
ATOM     13  O1  UNK d          30.004  35.878  28.679  0.00  0.00    -0.645 OA
ATOM     14  O3  UNK d          29.061  33.745  27.534  0.00  0.00    -0.645 OA
ENDBRANCH  10  12
ENDBRANCH   9  10
ENDBRANCH   7   9
ENDBRANCH   1   7
BRANCH   5  15
ATOM     15  O14 UNK d          24.833  30.764  27.751  0.00  0.00    -0.356 OA
BRANCH  15  16
ATOM     16  C15 UNK d          24.100  32.018  27.375  0.00  0.00     0.142 C 
BRANCH  16  17
ATOM     17  C16 UNK d          24.364  33.292  28.120  0.00  0.00     0.030 A 
ATOM     18  C17 UNK d          25.516  34.167  27.725  0.00  0.00     0.003 A 
ATOM     19  C18 UNK d          25.780  35.442  28.470  0.00  0.00     0.000 A 
ATOM     20  C19 UNK d          24.891  35.842  29.610  0.00  0.00     0.000 A 
ATOM     21  C20 UNK d          23.738  34.967  30.005  0.00  0.00     0.000 A 
ATOM     22  C21 UNK d          23.475  33.693  29.260  0.00  0.00     0.003 A 
ENDBRANCH  16  17
ENDBRANCH  15  16
ENDBRANCH   5  15
TORSDOF 7
ENDMDL
MODEL 7
REMARK VINA RESULT:      -1.2      2.707      4.637
REMARK  7 active torsions:
REMARK  status: ('A' for Active; 'I' for Inactive)
REMARK    1  A    between atoms: C2_2  and  C4_4 
REMARK    2  A    between atoms: C4_4  and  C6_6 
REMARK    3  A    between atoms: C6_6  and  C7_7 
REMARK    4  A    between atoms: C7_7  and  C9_9 
REMARK    5  A    between atoms: C13_13  and  O14_14 
REMARK    6  A    between atoms: O14_14  and  C15_15 
REMARK    7  A    between atoms: C15_15  and  C16_16 
ROOT
ATOM      1  C9  UNK d          28.594  32.973  30.259  0.00  0.00    -0.021 A 
ATOM      2  C10 UNK d          29.121  33.312  28.896  0.00  0.00     0.024 A 
ATOM      3  C11 UNK d          28.334  34.214  27.992  0.00  0.00     0.007 A 
ATOM      4  C12 UNK d          27.021  34.776  28.449  0.00  0.00     0.030 A 
ATOM      5  C13 UNK d          26.494  34.436  29.812  0.00  0.00     0.119 A 
ATOM      6  C22 UNK d          27.280  33.535  30.717  0.00  0.00     0.053 A 
ENDROOT
BRANCH   1   7
ATOM      7  C7  UNK d          29.380  32.071  31.164  0.00  0.00     0.104 C 
ATOM      8  O8  UNK d          30.600  32.591  31.864  0.00  0.00    -0.195 OA
BRANCH   7   9
ATOM      9  C6  UNK d          28.945  30.650  31.369  0.00  0.00     0.098 C 
BRANCH   9  10
ATOM     10  C4  UNK d          28.719  29.757  30.185  0.00  0.00     0.245 C 
ATOM     11  O5  UNK d          29.866  28.996  29.589  0.00  0.00    -0.211 OA
BRANCH  10  12
ATOM     12  C2  UNK d          27.345  29.625  29.597  0.00  0.00     0.218 C 
ATOM     13  O1  UNK d          26.407  28.574  30.112  0.00  0.00    -0.645 OA
ATOM     14  O3  UNK d          26.910  30.544  28.494  0.00  0.00    -0.645 OA
ENDBRANCH  10  12
ENDBRANCH   9  10
ENDBRANCH   7   9
ENDBRANCH   1   7
BRANCH   5  15
ATOM     15  O14 UNK d          25.181  34.998  30.269  0.00  0.00    -0.356 OA
BRANCH  15  16
ATOM     16  C15 UNK d          23.902  34.517  29.650  0.00  0.00     0.142 C 
BRANCH  16  17
ATOM     17  C16 UNK d          23.763  33.081  29.239  0.00  0.00     0.030 A 
ATOM     18  C17 UNK d          23.559  32.019  30.278  0.00  0.00     0.003 A 
ATOM     19  C18 UNK d          23.419  30.584  29.867  0.00  0.00     0.000 A 
ATOM     20  C19 UNK d          23.483  30.210  28.415  0.00  0.00     0.000 A 
ATOM     21  C20 UNK d          23.687  31.272  27.376  0.00  0.00     0.000 A 
ATOM     22  C21 UNK d          23.827  32.707  27.787  0.00  0.00     0.003 A 
ENDBRANCH  16  17
ENDBRANCH  15  16
ENDBRANCH   5  15
TORSDOF 7
ENDMDL
MODEL 8
REMARK VINA RESULT:      -1.2      2.155      3.658
REMARK  7 active torsions:
REMARK  status: ('A' for Active; 'I' for Inactive)
REMARK    1  A    between atoms: C2_2  and  C4_4 
REMARK    2  A    between atoms: C4_4  and  C6_6 
REMARK    3  A    between atoms: C6_6  and  C7_7 
REMARK    4  A    between atoms: C7_7  and  C9_9 
REMARK    5  A    between atoms: C13_13  and  O14_14 
REMARK    6  A    between atoms: O14_14  and  C15_15 
REMARK    7  A    between atoms: C15_15  and  C16_16 
ROOT
ATOM      1  C9  UNK d          26.738  30.378  29.626  0.00  0.00    -0.021 A 
ATOM      2  C10 UNK d          27.546  29.894  30.794  0.00  0.00     0.024 A 
ATOM      3  C11 UNK d          28.933  30.420  31.016  0.00  0.00     0.007 A 
ATOM      4  C12 UNK d          29.512  31.430  30.070  0.00  0.00     0.030 A 
ATOM      5  C13 UNK d          28.704  31.914  28.902  0.00  0.00     0.119 A 
ATOM      6  C22 UNK d          27.317  31.388  28.681  0.00  0.00     0.053 A 
ENDROOT
BRANCH   1   7
ATOM      7  C7  UNK d          25.351  29.852  29.405  0.00  0.00     0.104 C 
ATOM      8  O8  UNK d          24.980  28.484  29.895  0.00  0.00    -0.195 OA
BRANCH   7   9
ATOM      9  C6  UNK d          24.334  30.695  28.693  0.00  0.00     0.098 C 
BRANCH   9  10
ATOM     10  C4  UNK d          23.658  31.823  29.414  0.00  0.00     0.245 C 
ATOM     11  O5  UNK d          22.892  31.556  30.676  0.00  0.00    -0.211 OA
BRANCH  10  12
ATOM     12  C2  UNK d          23.748  33.219  28.873  0.00  0.00     0.218 C 
ATOM     13  O1  UNK d          22.938  34.318  29.495  0.00  0.00    -0.645 OA
ATOM     14  O3  UNK d          24.647  33.517  27.710  0.00  0.00    -0.645 OA
ENDBRANCH  10  12
ENDBRANCH   9  10
ENDBRANCH   7   9
ENDBRANCH   1   7
BRANCH   5  15
ATOM     15  O14 UNK d          29.284  32.924  27.957  0.00  0.00    -0.356 OA
BRANCH  15  16
ATOM     16  C15 UNK d          29.354  34.369  28.353  0.00  0.00     0.142 C 
BRANCH  16  17
ATOM     17  C16 UNK d          28.091  35.159  28.533  0.00  0.00     0.030 A 
ATOM     18  C17 UNK d          27.510  35.917  27.377  0.00  0.00     0.003 A 
ATOM     19  C18 UNK d          26.248  36.707  27.557  0.00  0.00     0.000 A 
ATOM     20  C19 UNK d          25.567  36.739  28.894  0.00  0.00     0.000 A 
ATOM     21  C20 UNK d          26.149  35.981  30.050  0.00  0.00     0.000 A 
ATOM     22  C21 UNK d          27.411  35.191  29.870  0.00  0.00     0.003 A 
ENDBRANCH  16  17
ENDBRANCH  15  16
ENDBRANCH   5  15
TORSDOF 7
ENDMDL
MODEL 9
REMARK VINA RESULT:      -1.2      3.024      5.534
REMARK  7 active torsions:
REMARK  status: ('A' for Active; 'I' for Inactive)
REMARK    1  A    between atoms: C2_2  and  C4_4 
REMARK    2  A    between atoms: C4_4  and  C6_6 
REMARK    3  A    between atoms: C6_6  and  C7_7 
REMARK    4  A    between atoms: C7_7  and  C9_9 
REMARK    5  A    between atoms: C13_13  and  O14_14 
REMARK    6  A    between atoms: O14_14  and  C15_15 
REMARK    7  A    between atoms: C15_15  and  C16_16 
ROOT
ATOM      1  C9  UNK d          27.514  30.313  30.440  0.00  0.00    -0.021 A 
ATOM      2  C10 UNK d          26.689  29.996  31.652  0.00  0.00     0.024 A 
ATOM      3  C11 UNK d          25.200  29.864  31.532  0.00  0.00     0.007 A 
ATOM      4  C12 UNK d          24.535  30.048  30.200  0.00  0.00     0.030 A 
ATOM      5  C13 UNK d          25.360  30.365  28.988  0.00  0.00     0.119 A 
ATOM      6  C22 UNK d          26.850  30.497  29.108  0.00  0.00     0.053 A 
ENDROOT
BRANCH   1   7
ATOM      7  C7  UNK d          29.003  30.445  30.560  0.00  0.00     0.104 C 
ATOM      8  O8  UNK d          29.619  30.823  31.874  0.00  0.00    -0.195 OA
BRANCH   7   9
ATOM      9  C6  UNK d          29.877  30.199  29.365  0.00  0.00     0.098 C 
BRANCH   9  10
ATOM     10  C4  UNK d          30.586  31.344  28.706  0.00  0.00     0.245 C 
ATOM     11  O5  UNK d          31.711  31.079  27.750  0.00  0.00    -0.211 OA
BRANCH  10  12
ATOM     12  C2  UNK d          30.170  32.754  29.003  0.00  0.00     0.218 C 
ATOM     13  O1  UNK d          28.956  33.333  28.341  0.00  0.00    -0.645 OA
ATOM     14  O3  UNK d          30.970  33.586  29.962  0.00  0.00    -0.645 OA
ENDBRANCH  10  12
ENDBRANCH   9  10
ENDBRANCH   7   9
ENDBRANCH   1   7
BRANCH   5  15
ATOM     15  O14 UNK d          24.696  30.549  27.655  0.00  0.00    -0.356 OA
BRANCH  15  16
ATOM     16  C15 UNK d          23.910  31.795  27.375  0.00  0.00     0.142 C 
BRANCH  16  17
ATOM     17  C16 UNK d          24.306  33.092  28.017  0.00  0.00     0.030 A 
ATOM     18  C17 UNK d          25.441  33.893  27.451  0.00  0.00     0.003 A 
ATOM     19  C18 UNK d          25.838  35.189  28.093  0.00  0.00     0.000 A 
ATOM     20  C19 UNK d          25.099  35.685  29.301  0.00  0.00     0.000 A 
ATOM     21  C20 UNK d          23.964  34.884  29.867  0.00  0.00     0.000 A 
ATOM     22  C21 UNK d          23.568  33.587  29.225  0.00  0.00     0.003 A 
ENDBRANCH  16  17
ENDBRANCH  15  16
ENDBRANCH   5  15
TORSDOF 7
ENDMDL
