MODEL 1
REMARK VINA RESULT:     129.3      0.000      0.000
REMARK  4 active torsions:
REMARK  status: ('A' for Active; 'I' for Inactive)
REMARK    1  A    between atoms: C2_2  and  C9_9 
REMARK    2  A    between atoms: C9_9  and  C10_10 
REMARK    3  A    between atoms: C10_10  and  S12_12 
REMARK    4  A    between atoms: S12_12  and  C13_13 
ROOT
ATOM      1  C9  UNK d          26.381  24.233   2.278  0.00  0.00     0.202 C 
ATOM      2  O11 UNK d          26.808  24.012   2.948  0.00  0.00    -0.286 OA
ENDROOT
BRANCH   1   3
ATOM      3  C2  UNK d          26.588  23.932   1.538  0.00  0.00     0.043 A 
ATOM      4  C1  UNK d          27.022  23.229   1.482  0.00  0.00     0.007 A 
ATOM      5  C6  UNK d          27.229  22.929   0.746  0.00  0.00     0.045 A 
ATOM      6  C5  UNK d          27.007  23.326   0.059  0.00  0.00     0.234 A 
ATOM      7  C4  UNK d          26.572  24.031   0.110  0.00  0.00     0.234 A 
ATOM      8  O7  UNK d          27.215  23.023  -0.679  0.00  0.00    -0.283 OA
ATOM      9  C3  UNK d          26.363  24.333   0.852  0.00  0.00     0.049 A 
ATOM     10  O8  UNK d          26.347  24.431  -0.576  0.00  0.00    -0.283 OA
ENDBRANCH   1   3
BRANCH   1  11
ATOM     11  C10 UNK d          25.746  24.754   2.347  0.00  0.00     0.080 C 
BRANCH  11  12
ATOM     12  S12 UNK d          25.651  25.200   3.035  0.00  0.00    -0.045 SA
BRANCH  12  13
ATOM     13  C13 UNK d          25.838  26.004   3.034  0.00  0.00     0.197 A 
ATOM     14  N14 UNK d          26.632  26.243   3.033  0.00  0.00    -0.221 NA
ATOM     15  C18 UNK d          26.822  27.044   3.033  0.00  0.00     0.088 A 
ATOM     16  C17 UNK d          26.217  27.608   3.032  0.00  0.00     0.082 A 
ATOM     17  C19 UNK d          27.612  27.283   3.032  0.00  0.00     0.021 C 
ATOM     18  C16 UNK d          25.426  27.368   3.033  0.00  0.00     0.283 A 
ATOM     19  N15 UNK d          25.243  26.563   3.034  0.00  0.00    -0.183 NA
ATOM     20  O20 UNK d          24.823  27.930   3.033  0.00  0.00    -0.265 OA
ENDBRANCH  12  13
ENDBRANCH  11  12
ENDBRANCH   1  11
TORSDOF 4
ENDMDL
