MODEL 1
REMARK VINA RESULT:     191.8      0.000      0.000
REMARK  7 active torsions:
REMARK  status: ('A' for Active; 'I' for Inactive)
REMARK    1  A    between atoms: C2_2  and  C4_4 
REMARK    2  A    between atoms: C4_4  and  C6_6 
REMARK    3  A    between atoms: C6_6  and  C7_7 
REMARK    4  A    between atoms: C7_7  and  C9_9 
REMARK    5  A    between atoms: C13_13  and  O14_14 
REMARK    6  A    between atoms: O14_14  and  C15_15 
REMARK    7  A    between atoms: C15_15  and  C16_16 
ROOT
ATOM      1  C9  UNK d          26.008  25.663   0.926  0.00  0.00    -0.021 A 
ATOM      2  C10 UNK d          24.893  25.104   0.093  0.00  0.00     0.024 A 
ATOM      3  C11 UNK d          25.102  23.842  -0.691  0.00  0.00     0.007 A 
ATOM      4  C12 UNK d          26.426  23.140  -0.643  0.00  0.00     0.030 A 
ATOM      5  C13 UNK d          27.541  23.698   0.190  0.00  0.00     0.119 A 
ATOM      6  C22 UNK d          27.332  24.960   0.974  0.00  0.00     0.053 A 
ENDROOT
BRANCH   1   7
ATOM      7  C7  UNK d          25.799  26.924   1.710  0.00  0.00     0.104 C 
ATOM      8  O8  UNK d          24.847  27.970   1.209  0.00  0.00    -0.195 OA
BRANCH   7   9
ATOM      9  C6  UNK d          26.542  27.140   2.995  0.00  0.00     0.098 C 
BRANCH   9  10
ATOM     10  C4  UNK d          28.042  27.120   3.006  0.00  0.00     0.245 C 
ATOM     11  O5  UNK d          28.809  28.409   3.029  0.00  0.00    -0.211 OA
BRANCH  10  12
ATOM     12  C2  UNK d          28.775  25.812   2.994  0.00  0.00     0.218 C 
ATOM     13  O1  UNK d          30.274  25.792   3.019  0.00  0.00    -0.645 OA
ATOM     14  O3  UNK d          28.008  24.523   2.958  0.00  0.00    -0.645 OA
ENDBRANCH  10  12
ENDBRANCH   9  10
ENDBRANCH   7   9
ENDBRANCH   1   7
BRANCH   5  15
ATOM     15  O14 UNK d          28.865  22.996   0.239  0.00  0.00    -0.356 OA
BRANCH  15  16
ATOM     16  C15 UNK d          30.138  23.788   0.184  0.00  0.00     0.142 C 
BRANCH  16  17
ATOM     17  C16 UNK d          30.108  25.271   0.411  0.00  0.00     0.030 A 
ATOM     18  C17 UNK d          29.748  26.195  -0.715  0.00  0.00     0.003 A 
ATOM     19  C18 UNK d          29.718  27.677  -0.488  0.00  0.00     0.000 A 
ATOM     20  C19 UNK d          30.049  28.236   0.864  0.00  0.00     0.000 A 
ATOM     21  C20 UNK d          30.408  27.312   1.990  0.00  0.00     0.000 A 
ATOM     22  C21 UNK d          30.438  25.829   1.763  0.00  0.00     0.003 A 
ENDBRANCH  16  17
ENDBRANCH  15  16
ENDBRANCH   5  15
TORSDOF 7
ENDMDL
