MODEL 1
REMARK VINA RESULT:     105.4      0.000      0.000
REMARK  4 active torsions:
REMARK  status: ('A' for Active; 'I' for Inactive)
REMARK    1  A    between atoms: C2_2  and  C4_4 
REMARK    2  A    between atoms: C4_4  and  C6_6 
REMARK    3  A    between atoms: C6_6  and  C7_7 
REMARK    4  A    between atoms: C7_7  and  C9_9 
ROOT
ATOM      1  C7  UNK d          26.025  27.786   2.892  0.00  0.00     0.104 C 
ATOM      2  O8  UNK d          25.535  29.203   2.875  0.00  0.00    -0.195 OA
ENDROOT
BRANCH   1   3
ATOM      3  C6  UNK d          25.043  26.652   2.864  0.00  0.00     0.098 C 
BRANCH   3   4
ATOM      4  C4  UNK d          25.409  25.359   2.198  0.00  0.00     0.245 C 
ATOM      5  O5  UNK d          25.702  24.145   3.028  0.00  0.00    -0.211 OA
BRANCH   4   6
ATOM      6  C2  UNK d          25.483  25.280   0.702  0.00  0.00     0.218 C 
ATOM      7  O1  UNK d          24.842  26.346  -0.138  0.00  0.00    -0.645 OA
ATOM      8  O3  UNK d          26.197  24.136   0.045  0.00  0.00    -0.645 OA
ENDBRANCH   4   6
ENDBRANCH   3   4
ENDBRANCH   1   3
BRANCH   1   9
ATOM      9  C9  UNK d          27.497  27.501   2.938  0.00  0.00    -0.023 A 
ATOM     10  C10 UNK d          28.478  28.635   2.983  0.00  0.00     0.024 A 
ATOM     11  C11 UNK d          29.951  28.351   3.029  0.00  0.00     0.004 A 
ATOM     12  C12 UNK d          30.441  26.933   3.030  0.00  0.00     0.001 A 
ATOM     13  C13 UNK d          29.459  25.800   2.986  0.00  0.00     0.004 A 
ATOM     14  C14 UNK d          27.987  26.084   2.940  0.00  0.00     0.024 A 
ENDBRANCH   1   9
TORSDOF 4
ENDMDL
MODEL 2
REMARK VINA RESULT:     105.8      2.036      3.628
REMARK  4 active torsions:
REMARK  status: ('A' for Active; 'I' for Inactive)
REMARK    1  A    between atoms: C2_2  and  C4_4 
REMARK    2  A    between atoms: C4_4  and  C6_6 
REMARK    3  A    between atoms: C6_6  and  C7_7 
REMARK    4  A    between atoms: C7_7  and  C9_9 
ROOT
ATOM      1  C7  UNK d          28.658  26.051   2.794  0.00  0.00     0.104 C 
ATOM      2  O8  UNK d          30.002  26.715   2.840  0.00  0.00    -0.195 OA
ENDROOT
BRANCH   1   3
ATOM      3  C6  UNK d          28.562  24.559   2.667  0.00  0.00     0.098 C 
BRANCH   3   4
ATOM      4  C4  UNK d          27.428  23.943   1.903  0.00  0.00     0.245 C 
ATOM      5  O5  UNK d          26.133  23.640   2.597  0.00  0.00    -0.211 OA
BRANCH   4   6
ATOM      6  C2  UNK d          27.588  23.629   0.445  0.00  0.00     0.218 C 
ATOM      7  O1  UNK d          26.523  24.032  -0.531  0.00  0.00    -0.645 OA
ATOM      8  O3  UNK d          28.815  22.912  -0.037  0.00  0.00    -0.645 OA
ENDBRANCH   4   6
ENDBRANCH   3   4
ENDBRANCH   1   3
BRANCH   1   9
ATOM      9  C9  UNK d          27.409  26.878   2.874  0.00  0.00    -0.023 A 
ATOM     10  C10 UNK d          26.067  26.209   2.916  0.00  0.00     0.024 A 
ATOM     11  C11 UNK d          24.819  27.037   2.996  0.00  0.00     0.004 A 
ATOM     12  C12 UNK d          24.912  28.534   3.035  0.00  0.00     0.001 A 
ATOM     13  C13 UNK d          26.254  29.203   2.993  0.00  0.00     0.004 A 
ATOM     14  C14 UNK d          27.503  28.375   2.912  0.00  0.00     0.024 A 
ENDBRANCH   1   9
TORSDOF 4
ENDMDL
