MODEL 1
REMARK VINA RESULT:     135.4      0.000      0.000
REMARK  1 active torsions:
REMARK  status: ('A' for Active; 'I' for Inactive)
REMARK    1  A    between atoms: C1_1  and  C7_7 
ROOT
ATOM      1  C1  UNK d          25.891  24.860   0.737  0.00  0.00     0.102 A 
ATOM      2  C2  UNK d          25.973  24.994   1.547  0.00  0.00     0.203 A 
ATOM      3  C3  UNK d          25.450  25.374   0.268  0.00  0.00     0.303 A 
ATOM      4  O4  UNK d          25.092  26.028   0.625  0.00  0.00    -0.273 OA
ATOM      5  C5  UNK d          25.613  25.645   1.887  0.00  0.00     0.062 A 
ATOM      6  C6  UNK d          25.175  26.162   1.435  0.00  0.00     0.106 A 
ATOM      7  O8  UNK d          25.368  25.240  -0.542  0.00  0.00    -0.259 OA
ATOM      8  O9  UNK d          26.418  24.470   2.008  0.00  0.00    -0.286 OA
ATOM      9  C10 UNK d          25.697  25.773   2.686  0.00  0.00     0.005 A 
ATOM     10  C11 UNK d          24.819  26.808   1.776  0.00  0.00     0.025 A 
ATOM     11  C14 UNK d          25.342  26.420   3.035  0.00  0.00     0.000 A 
ATOM     12  C15 UNK d          24.900  26.940   2.574  0.00  0.00     0.002 A 
ENDROOT
BRANCH   1  13
ATOM     13  C7  UNK d          26.253  24.204   0.392  0.00  0.00     0.008 A 
ATOM     14  C12 UNK d          26.577  24.266  -0.369  0.00  0.00     0.000 A 
ATOM     15  C17 UNK d          26.938  23.614  -0.714  0.00  0.00     0.000 A 
ATOM     16  C18 UNK d          26.981  22.893  -0.304  0.00  0.00     0.000 A 
ATOM     17  C16 UNK d          26.658  22.838   0.453  0.00  0.00     0.000 A 
ATOM     18  C13 UNK d          26.294  23.494   0.801  0.00  0.00     0.000 A 
ENDBRANCH   1  13
TORSDOF 1
ENDMDL
MODEL 2
REMARK VINA RESULT:     136.0      0.511      3.308
REMARK  1 active torsions:
REMARK  status: ('A' for Active; 'I' for Inactive)
REMARK    1  A    between atoms: C1_1  and  C7_7 
ROOT
ATOM      1  C1  UNK d          25.953  25.088   1.142  0.00  0.00     0.102 A 
ATOM      2  C2  UNK d          26.456  24.448   1.277  0.00  0.00     0.203 A 
ATOM      3  C3  UNK d          25.657  25.240   0.389  0.00  0.00     0.303 A 
ATOM      4  O4  UNK d          25.874  24.737  -0.231  0.00  0.00    -0.273 OA
ATOM      5  C5  UNK d          26.663  23.959   0.654  0.00  0.00     0.062 A 
ATOM      6  C6  UNK d          26.378  24.098  -0.097  0.00  0.00     0.106 A 
ATOM      7  O8  UNK d          25.154  25.879   0.254  0.00  0.00    -0.259 OA
ATOM      8  O9  UNK d          26.748  24.305   2.038  0.00  0.00    -0.286 OA
ATOM      9  C10 UNK d          27.159  23.330   0.790  0.00  0.00     0.005 A 
ATOM     10  C11 UNK d          26.585  23.610  -0.713  0.00  0.00     0.025 A 
ATOM     11  C14 UNK d          27.372  22.836   0.176  0.00  0.00     0.000 A 
ATOM     12  C15 UNK d          27.081  22.980  -0.581  0.00  0.00     0.002 A 
ENDROOT
BRANCH   1  13
ATOM     13  C7  UNK d          25.744  25.581   1.770  0.00  0.00     0.008 A 
ATOM     14  C12 UNK d          26.265  25.676   2.409  0.00  0.00     0.000 A 
ATOM     15  C17 UNK d          26.059  26.167   3.034  0.00  0.00     0.000 A 
ATOM     16  C18 UNK d          25.332  26.569   3.030  0.00  0.00     0.000 A 
ATOM     17  C16 UNK d          24.819  26.470   2.392  0.00  0.00     0.000 A 
ATOM     18  C13 UNK d          25.026  25.976   1.761  0.00  0.00     0.000 A 
ENDBRANCH   1  13
TORSDOF 1
ENDMDL
